version 2
run Experiment19_9staticReaders_361TagsGrid-0-20150406-10:26:43-18304
attr configname Experiment19_9staticReaders_361TagsGrid
attr datetime 20150406-10:26:43
attr experiment Experiment19_9staticReaders_361TagsGrid
attr inifile omnetpp.ini
attr iterationvars ""
attr iterationvars2 $repetition=0
attr measurement ""
attr network _01_RfidSim
attr processid 18304
attr repetition 0
attr replication #0
attr resultdir results
attr runnumber 0
attr seedset 0

scalar _01_RfidSim.reader[0].mobility 	x 	240
scalar _01_RfidSim.reader[0].mobility 	y 	0
scalar _01_RfidSim.reader[0].nic.phy 	nbFramesWithInterference 	10
scalar _01_RfidSim.reader[0].nic.phy 	nbFramesWithoutInterference 	62
scalar _01_RfidSim.reader[0].nic.phy 	nbFramesWithInterferencePartial 	0
scalar _01_RfidSim.reader[0].nic.phy 	nbFramesWithoutInterferencePartial 	0
scalar _01_RfidSim.reader[0].nic.phy 	nbFramesWithInterferenceDropped 	0
scalar _01_RfidSim.reader[0].nic.phy 	nbFramesWithoutInterferenceDropped 	0
scalar _01_RfidSim.reader[1].mobility 	x 	800
scalar _01_RfidSim.reader[1].mobility 	y 	0
scalar _01_RfidSim.reader[1].nic.phy 	nbFramesWithInterference 	10
scalar _01_RfidSim.reader[1].nic.phy 	nbFramesWithoutInterference 	80
scalar _01_RfidSim.reader[1].nic.phy 	nbFramesWithInterferencePartial 	0
scalar _01_RfidSim.reader[1].nic.phy 	nbFramesWithoutInterferencePartial 	0
scalar _01_RfidSim.reader[1].nic.phy 	nbFramesWithInterferenceDropped 	1
scalar _01_RfidSim.reader[1].nic.phy 	nbFramesWithoutInterferenceDropped 	0
scalar _01_RfidSim.reader[2].mobility 	x 	1360
scalar _01_RfidSim.reader[2].mobility 	y 	0
scalar _01_RfidSim.reader[2].nic.phy 	nbFramesWithInterference 	11
scalar _01_RfidSim.reader[2].nic.phy 	nbFramesWithoutInterference 	65
scalar _01_RfidSim.reader[2].nic.phy 	nbFramesWithInterferencePartial 	0
scalar _01_RfidSim.reader[2].nic.phy 	nbFramesWithoutInterferencePartial 	0
scalar _01_RfidSim.reader[2].nic.phy 	nbFramesWithInterferenceDropped 	0
scalar _01_RfidSim.reader[2].nic.phy 	nbFramesWithoutInterferenceDropped 	0
scalar _01_RfidSim.reader[3].mobility 	x 	240
scalar _01_RfidSim.reader[3].mobility 	y 	400
scalar _01_RfidSim.reader[3].nic.phy 	nbFramesWithInterference 	32
scalar _01_RfidSim.reader[3].nic.phy 	nbFramesWithoutInterference 	69
scalar _01_RfidSim.reader[3].nic.phy 	nbFramesWithInterferencePartial 	0
scalar _01_RfidSim.reader[3].nic.phy 	nbFramesWithoutInterferencePartial 	0
scalar _01_RfidSim.reader[3].nic.phy 	nbFramesWithInterferenceDropped 	6
scalar _01_RfidSim.reader[3].nic.phy 	nbFramesWithoutInterferenceDropped 	0
scalar _01_RfidSim.reader[4].mobility 	x 	800
scalar _01_RfidSim.reader[4].mobility 	y 	400
scalar _01_RfidSim.reader[4].nic.phy 	nbFramesWithInterference 	41
scalar _01_RfidSim.reader[4].nic.phy 	nbFramesWithoutInterference 	71
scalar _01_RfidSim.reader[4].nic.phy 	nbFramesWithInterferencePartial 	0
scalar _01_RfidSim.reader[4].nic.phy 	nbFramesWithoutInterferencePartial 	0
scalar _01_RfidSim.reader[4].nic.phy 	nbFramesWithInterferenceDropped 	16
scalar _01_RfidSim.reader[4].nic.phy 	nbFramesWithoutInterferenceDropped 	0
scalar _01_RfidSim.reader[5].mobility 	x 	1360
scalar _01_RfidSim.reader[5].mobility 	y 	400
scalar _01_RfidSim.reader[5].nic.phy 	nbFramesWithInterference 	40
scalar _01_RfidSim.reader[5].nic.phy 	nbFramesWithoutInterference 	71
scalar _01_RfidSim.reader[5].nic.phy 	nbFramesWithInterferencePartial 	0
scalar _01_RfidSim.reader[5].nic.phy 	nbFramesWithoutInterferencePartial 	0
scalar _01_RfidSim.reader[5].nic.phy 	nbFramesWithInterferenceDropped 	8
scalar _01_RfidSim.reader[5].nic.phy 	nbFramesWithoutInterferenceDropped 	0
scalar _01_RfidSim.reader[6].mobility 	x 	240
scalar _01_RfidSim.reader[6].mobility 	y 	799
scalar _01_RfidSim.reader[6].nic.phy 	nbFramesWithInterference 	8
scalar _01_RfidSim.reader[6].nic.phy 	nbFramesWithoutInterference 	65
scalar _01_RfidSim.reader[6].nic.phy 	nbFramesWithInterferencePartial 	0
scalar _01_RfidSim.reader[6].nic.phy 	nbFramesWithoutInterferencePartial 	0
scalar _01_RfidSim.reader[6].nic.phy 	nbFramesWithInterferenceDropped 	2
scalar _01_RfidSim.reader[6].nic.phy 	nbFramesWithoutInterferenceDropped 	0
scalar _01_RfidSim.reader[7].mobility 	x 	800
scalar _01_RfidSim.reader[7].mobility 	y 	799
scalar _01_RfidSim.reader[7].nic.phy 	nbFramesWithInterference 	9
scalar _01_RfidSim.reader[7].nic.phy 	nbFramesWithoutInterference 	78
scalar _01_RfidSim.reader[7].nic.phy 	nbFramesWithInterferencePartial 	0
scalar _01_RfidSim.reader[7].nic.phy 	nbFramesWithoutInterferencePartial 	0
scalar _01_RfidSim.reader[7].nic.phy 	nbFramesWithInterferenceDropped 	3
scalar _01_RfidSim.reader[7].nic.phy 	nbFramesWithoutInterferenceDropped 	0
scalar _01_RfidSim.reader[8].mobility 	x 	1360
scalar _01_RfidSim.reader[8].mobility 	y 	799
scalar _01_RfidSim.reader[8].nic.phy 	nbFramesWithInterference 	12
scalar _01_RfidSim.reader[8].nic.phy 	nbFramesWithoutInterference 	69
scalar _01_RfidSim.reader[8].nic.phy 	nbFramesWithInterferencePartial 	0
scalar _01_RfidSim.reader[8].nic.phy 	nbFramesWithoutInterferencePartial 	0
scalar _01_RfidSim.reader[8].nic.phy 	nbFramesWithInterferenceDropped 	3
scalar _01_RfidSim.reader[8].nic.phy 	nbFramesWithoutInterferenceDropped 	0
scalar _01_RfidSim.tag[0].mobility 	x 	0
scalar _01_RfidSim.tag[0].mobility 	y 	0
scalar _01_RfidSim.tag[0].nic.phy 	nbFramesWithInterference 	1
scalar _01_RfidSim.tag[0].nic.phy 	nbFramesWithoutInterference 	12
scalar _01_RfidSim.tag[0].nic.phy 	nbFramesWithInterferencePartial 	0
scalar _01_RfidSim.tag[0].nic.phy 	nbFramesWithoutInterferencePartial 	0
scalar _01_RfidSim.tag[0].nic.phy 	nbFramesWithInterferenceDropped 	0
scalar _01_RfidSim.tag[0].nic.phy 	nbFramesWithoutInterferenceDropped 	0
scalar _01_RfidSim.tag[1].mobility 	x 	88.888888888889
scalar _01_RfidSim.tag[1].mobility 	y 	0
scalar _01_RfidSim.tag[1].nic.phy 	nbFramesWithInterference 	1
scalar _01_RfidSim.tag[1].nic.phy 	nbFramesWithoutInterference 	55
scalar _01_RfidSim.tag[1].nic.phy 	nbFramesWithInterferencePartial 	0
scalar _01_RfidSim.tag[1].nic.phy 	nbFramesWithoutInterferencePartial 	0
scalar _01_RfidSim.tag[1].nic.phy 	nbFramesWithInterferenceDropped 	0
scalar _01_RfidSim.tag[1].nic.phy 	nbFramesWithoutInterferenceDropped 	0
scalar _01_RfidSim.tag[2].mobility 	x 	177.77777777778
scalar _01_RfidSim.tag[2].mobility 	y 	0
scalar _01_RfidSim.tag[2].nic.phy 	nbFramesWithInterference 	0
scalar _01_RfidSim.tag[2].nic.phy 	nbFramesWithoutInterference 	66
scalar _01_RfidSim.tag[2].nic.phy 	nbFramesWithInterferencePartial 	0
scalar _01_RfidSim.tag[2].nic.phy 	nbFramesWithoutInterferencePartial 	0
scalar _01_RfidSim.tag[2].nic.phy 	nbFramesWithInterferenceDropped 	0
scalar _01_RfidSim.tag[2].nic.phy 	nbFramesWithoutInterferenceDropped 	0
scalar _01_RfidSim.tag[3].mobility 	x 	266.66666666667
scalar _01_RfidSim.tag[3].mobility 	y 	0
scalar _01_RfidSim.tag[3].nic.phy 	nbFramesWithInterference 	1
scalar _01_RfidSim.tag[3].nic.phy 	nbFramesWithoutInterference 	67
scalar _01_RfidSim.tag[3].nic.phy 	nbFramesWithInterferencePartial 	0
scalar _01_RfidSim.tag[3].nic.phy 	nbFramesWithoutInterferencePartial 	0
scalar _01_RfidSim.tag[3].nic.phy 	nbFramesWithInterferenceDropped 	0
scalar _01_RfidSim.tag[3].nic.phy 	nbFramesWithoutInterferenceDropped 	0
scalar _01_RfidSim.tag[4].mobility 	x 	355.55555555556
scalar _01_RfidSim.tag[4].mobility 	y 	0
scalar _01_RfidSim.tag[4].nic.phy 	nbFramesWithInterference 	4
scalar _01_RfidSim.tag[4].nic.phy 	nbFramesWithoutInterference 	53
scalar _01_RfidSim.tag[4].nic.phy 	nbFramesWithInterferencePartial 	0
scalar _01_RfidSim.tag[4].nic.phy 	nbFramesWithoutInterferencePartial 	0
scalar _01_RfidSim.tag[4].nic.phy 	nbFramesWithInterferenceDropped 	0
scalar _01_RfidSim.tag[4].nic.phy 	nbFramesWithoutInterferenceDropped 	0
scalar _01_RfidSim.tag[5].mobility 	x 	444.44444444444
scalar _01_RfidSim.tag[5].mobility 	y 	0
scalar _01_RfidSim.tag[5].nic.phy 	nbFramesWithInterference 	7
scalar _01_RfidSim.tag[5].nic.phy 	nbFramesWithoutInterference 	14
scalar _01_RfidSim.tag[5].nic.phy 	nbFramesWithInterferencePartial 	0
scalar _01_RfidSim.tag[5].nic.phy 	nbFramesWithoutInterferencePartial 	0
scalar _01_RfidSim.tag[5].nic.phy 	nbFramesWithInterferenceDropped 	0
scalar _01_RfidSim.tag[5].nic.phy 	nbFramesWithoutInterferenceDropped 	0
scalar _01_RfidSim.tag[6].mobility 	x 	533.33333333333
scalar _01_RfidSim.tag[6].mobility 	y 	0
scalar _01_RfidSim.tag[6].nic.phy 	nbFramesWithInterference 	9
scalar _01_RfidSim.tag[6].nic.phy 	nbFramesWithoutInterference 	16
scalar _01_RfidSim.tag[6].nic.phy 	nbFramesWithInterferencePartial 	0
scalar _01_RfidSim.tag[6].nic.phy 	nbFramesWithoutInterferencePartial 	0
scalar _01_RfidSim.tag[6].nic.phy 	nbFramesWithInterferenceDropped 	0
scalar _01_RfidSim.tag[6].nic.phy 	nbFramesWithoutInterferenceDropped 	0
scalar _01_RfidSim.tag[7].mobility 	x 	622.22222222222
scalar _01_RfidSim.tag[7].mobility 	y 	0
scalar _01_RfidSim.tag[7].nic.phy 	nbFramesWithInterference 	15
scalar _01_RfidSim.tag[7].nic.phy 	nbFramesWithoutInterference 	43
scalar _01_RfidSim.tag[7].nic.phy 	nbFramesWithInterferencePartial 	0
scalar _01_RfidSim.tag[7].nic.phy 	nbFramesWithoutInterferencePartial 	0
scalar _01_RfidSim.tag[7].nic.phy 	nbFramesWithInterferenceDropped 	0
scalar _01_RfidSim.tag[7].nic.phy 	nbFramesWithoutInterferenceDropped 	0
scalar _01_RfidSim.tag[8].mobility 	x 	711.11111111111
scalar _01_RfidSim.tag[8].mobility 	y 	0
scalar _01_RfidSim.tag[8].nic.phy 	nbFramesWithInterference 	6
scalar _01_RfidSim.tag[8].nic.phy 	nbFramesWithoutInterference 	64
scalar _01_RfidSim.tag[8].nic.phy 	nbFramesWithInterferencePartial 	0
scalar _01_RfidSim.tag[8].nic.phy 	nbFramesWithoutInterferencePartial 	0
scalar _01_RfidSim.tag[8].nic.phy 	nbFramesWithInterferenceDropped 	0
scalar _01_RfidSim.tag[8].nic.phy 	nbFramesWithoutInterferenceDropped 	0
scalar _01_RfidSim.tag[9].mobility 	x 	800
scalar _01_RfidSim.tag[9].mobility 	y 	0
scalar _01_RfidSim.tag[9].nic.phy 	nbFramesWithInterference 	5
scalar _01_RfidSim.tag[9].nic.phy 	nbFramesWithoutInterference 	75
scalar _01_RfidSim.tag[9].nic.phy 	nbFramesWithInterferencePartial 	0
scalar _01_RfidSim.tag[9].nic.phy 	nbFramesWithoutInterferencePartial 	0
scalar _01_RfidSim.tag[9].nic.phy 	nbFramesWithInterferenceDropped 	0
scalar _01_RfidSim.tag[9].nic.phy 	nbFramesWithoutInterferenceDropped 	0
scalar _01_RfidSim.tag[10].mobility 	x 	888.88888888889
scalar _01_RfidSim.tag[10].mobility 	y 	0
scalar _01_RfidSim.tag[10].nic.phy 	nbFramesWithInterference 	2
scalar _01_RfidSim.tag[10].nic.phy 	nbFramesWithoutInterference 	69
scalar _01_RfidSim.tag[10].nic.phy 	nbFramesWithInterferencePartial 	0
scalar _01_RfidSim.tag[10].nic.phy 	nbFramesWithoutInterferencePartial 	0
scalar _01_RfidSim.tag[10].nic.phy 	nbFramesWithInterferenceDropped 	0
scalar _01_RfidSim.tag[10].nic.phy 	nbFramesWithoutInterferenceDropped 	0
scalar _01_RfidSim.tag[11].mobility 	x 	977.77777777778
scalar _01_RfidSim.tag[11].mobility 	y 	0
scalar _01_RfidSim.tag[11].nic.phy 	nbFramesWithInterference 	12
scalar _01_RfidSim.tag[11].nic.phy 	nbFramesWithoutInterference 	38
scalar _01_RfidSim.tag[11].nic.phy 	nbFramesWithInterferencePartial 	0
scalar _01_RfidSim.tag[11].nic.phy 	nbFramesWithoutInterferencePartial 	0
scalar _01_RfidSim.tag[11].nic.phy 	nbFramesWithInterferenceDropped 	1
scalar _01_RfidSim.tag[11].nic.phy 	nbFramesWithoutInterferenceDropped 	0
scalar _01_RfidSim.tag[12].mobility 	x 	1066.6666666667
scalar _01_RfidSim.tag[12].mobility 	y 	0
scalar _01_RfidSim.tag[12].nic.phy 	nbFramesWithInterference 	4
scalar _01_RfidSim.tag[12].nic.phy 	nbFramesWithoutInterference 	13
scalar _01_RfidSim.tag[12].nic.phy 	nbFramesWithInterferencePartial 	0
scalar _01_RfidSim.tag[12].nic.phy 	nbFramesWithoutInterferencePartial 	0
scalar _01_RfidSim.tag[12].nic.phy 	nbFramesWithInterferenceDropped 	2
scalar _01_RfidSim.tag[12].nic.phy 	nbFramesWithoutInterferenceDropped 	0
scalar _01_RfidSim.tag[13].mobility 	x 	1155.5555555556
scalar _01_RfidSim.tag[13].mobility 	y 	0
scalar _01_RfidSim.tag[13].nic.phy 	nbFramesWithInterference 	5
scalar _01_RfidSim.tag[13].nic.phy 	nbFramesWithoutInterference 	17
scalar _01_RfidSim.tag[13].nic.phy 	nbFramesWithInterferencePartial 	0
scalar _01_RfidSim.tag[13].nic.phy 	nbFramesWithoutInterferencePartial 	0
scalar _01_RfidSim.tag[13].nic.phy 	nbFramesWithInterferenceDropped 	0
scalar _01_RfidSim.tag[13].nic.phy 	nbFramesWithoutInterferenceDropped 	0
scalar _01_RfidSim.tag[14].mobility 	x 	1244.4444444444
scalar _01_RfidSim.tag[14].mobility 	y 	0
scalar _01_RfidSim.tag[14].nic.phy 	nbFramesWithInterference 	1
scalar _01_RfidSim.tag[14].nic.phy 	nbFramesWithoutInterference 	56
scalar _01_RfidSim.tag[14].nic.phy 	nbFramesWithInterferencePartial 	0
scalar _01_RfidSim.tag[14].nic.phy 	nbFramesWithoutInterferencePartial 	0
scalar _01_RfidSim.tag[14].nic.phy 	nbFramesWithInterferenceDropped 	0
scalar _01_RfidSim.tag[14].nic.phy 	nbFramesWithoutInterferenceDropped 	0
scalar _01_RfidSim.tag[15].mobility 	x 	1333.3333333333
scalar _01_RfidSim.tag[15].mobility 	y 	0
scalar _01_RfidSim.tag[15].nic.phy 	nbFramesWithInterference 	0
scalar _01_RfidSim.tag[15].nic.phy 	nbFramesWithoutInterference 	68
scalar _01_RfidSim.tag[15].nic.phy 	nbFramesWithInterferencePartial 	0
scalar _01_RfidSim.tag[15].nic.phy 	nbFramesWithoutInterferencePartial 	0
scalar _01_RfidSim.tag[15].nic.phy 	nbFramesWithInterferenceDropped 	0
scalar _01_RfidSim.tag[15].nic.phy 	nbFramesWithoutInterferenceDropped 	0
scalar _01_RfidSim.tag[16].mobility 	x 	1422.2222222222
scalar _01_RfidSim.tag[16].mobility 	y 	0
scalar _01_RfidSim.tag[16].nic.phy 	nbFramesWithInterference 	0
scalar _01_RfidSim.tag[16].nic.phy 	nbFramesWithoutInterference 	66
scalar _01_RfidSim.tag[16].nic.phy 	nbFramesWithInterferencePartial 	0
scalar _01_RfidSim.tag[16].nic.phy 	nbFramesWithoutInterferencePartial 	0
scalar _01_RfidSim.tag[16].nic.phy 	nbFramesWithInterferenceDropped 	0
scalar _01_RfidSim.tag[16].nic.phy 	nbFramesWithoutInterferenceDropped 	0
scalar _01_RfidSim.tag[17].mobility 	x 	1511.1111111111
scalar _01_RfidSim.tag[17].mobility 	y 	0
scalar _01_RfidSim.tag[17].nic.phy 	nbFramesWithInterference 	0
scalar _01_RfidSim.tag[17].nic.phy 	nbFramesWithoutInterference 	56
scalar _01_RfidSim.tag[17].nic.phy 	nbFramesWithInterferencePartial 	0
scalar _01_RfidSim.tag[17].nic.phy 	nbFramesWithoutInterferencePartial 	0
scalar _01_RfidSim.tag[17].nic.phy 	nbFramesWithInterferenceDropped 	0
scalar _01_RfidSim.tag[17].nic.phy 	nbFramesWithoutInterferenceDropped 	0
scalar _01_RfidSim.tag[18].mobility 	x 	1599
scalar _01_RfidSim.tag[18].mobility 	y 	0
scalar _01_RfidSim.tag[18].nic.phy 	nbFramesWithInterference 	0
scalar _01_RfidSim.tag[18].nic.phy 	nbFramesWithoutInterference 	15
scalar _01_RfidSim.tag[18].nic.phy 	nbFramesWithInterferencePartial 	0
scalar _01_RfidSim.tag[18].nic.phy 	nbFramesWithoutInterferencePartial 	0
scalar _01_RfidSim.tag[18].nic.phy 	nbFramesWithInterferenceDropped 	0
scalar _01_RfidSim.tag[18].nic.phy 	nbFramesWithoutInterferenceDropped 	0
scalar _01_RfidSim.tag[19].mobility 	x 	0
scalar _01_RfidSim.tag[19].mobility 	y 	44.444444444444
scalar _01_RfidSim.tag[19].nic.phy 	nbFramesWithInterference 	1
scalar _01_RfidSim.tag[19].nic.phy 	nbFramesWithoutInterference 	14
scalar _01_RfidSim.tag[19].nic.phy 	nbFramesWithInterferencePartial 	0
scalar _01_RfidSim.tag[19].nic.phy 	nbFramesWithoutInterferencePartial 	0
scalar _01_RfidSim.tag[19].nic.phy 	nbFramesWithInterferenceDropped 	0
scalar _01_RfidSim.tag[19].nic.phy 	nbFramesWithoutInterferenceDropped 	0
scalar _01_RfidSim.tag[20].mobility 	x 	88.888888888889
scalar _01_RfidSim.tag[20].mobility 	y 	44.444444444444
scalar _01_RfidSim.tag[20].nic.phy 	nbFramesWithInterference 	1
scalar _01_RfidSim.tag[20].nic.phy 	nbFramesWithoutInterference 	58
scalar _01_RfidSim.tag[20].nic.phy 	nbFramesWithInterferencePartial 	0
scalar _01_RfidSim.tag[20].nic.phy 	nbFramesWithoutInterferencePartial 	0
scalar _01_RfidSim.tag[20].nic.phy 	nbFramesWithInterferenceDropped 	0
scalar _01_RfidSim.tag[20].nic.phy 	nbFramesWithoutInterferenceDropped 	0
scalar _01_RfidSim.tag[21].mobility 	x 	177.77777777778
scalar _01_RfidSim.tag[21].mobility 	y 	44.444444444444
scalar _01_RfidSim.tag[21].nic.phy 	nbFramesWithInterference 	1
scalar _01_RfidSim.tag[21].nic.phy 	nbFramesWithoutInterference 	71
scalar _01_RfidSim.tag[21].nic.phy 	nbFramesWithInterferencePartial 	0
scalar _01_RfidSim.tag[21].nic.phy 	nbFramesWithoutInterferencePartial 	0
scalar _01_RfidSim.tag[21].nic.phy 	nbFramesWithInterferenceDropped 	0
scalar _01_RfidSim.tag[21].nic.phy 	nbFramesWithoutInterferenceDropped 	0
scalar _01_RfidSim.tag[22].mobility 	x 	266.66666666667
scalar _01_RfidSim.tag[22].mobility 	y 	44.444444444444
scalar _01_RfidSim.tag[22].nic.phy 	nbFramesWithInterference 	1
scalar _01_RfidSim.tag[22].nic.phy 	nbFramesWithoutInterference 	71
scalar _01_RfidSim.tag[22].nic.phy 	nbFramesWithInterferencePartial 	0
scalar _01_RfidSim.tag[22].nic.phy 	nbFramesWithoutInterferencePartial 	0
scalar _01_RfidSim.tag[22].nic.phy 	nbFramesWithInterferenceDropped 	0
scalar _01_RfidSim.tag[22].nic.phy 	nbFramesWithoutInterferenceDropped 	0
scalar _01_RfidSim.tag[23].mobility 	x 	355.55555555556
scalar _01_RfidSim.tag[23].mobility 	y 	44.444444444444
scalar _01_RfidSim.tag[23].nic.phy 	nbFramesWithInterference 	5
scalar _01_RfidSim.tag[23].nic.phy 	nbFramesWithoutInterference 	56
scalar _01_RfidSim.tag[23].nic.phy 	nbFramesWithInterferencePartial 	0
scalar _01_RfidSim.tag[23].nic.phy 	nbFramesWithoutInterferencePartial 	0
scalar _01_RfidSim.tag[23].nic.phy 	nbFramesWithInterferenceDropped 	0
scalar _01_RfidSim.tag[23].nic.phy 	nbFramesWithoutInterferenceDropped 	0
scalar _01_RfidSim.tag[24].mobility 	x 	444.44444444444
scalar _01_RfidSim.tag[24].mobility 	y 	44.444444444444
scalar _01_RfidSim.tag[24].nic.phy 	nbFramesWithInterference 	9
scalar _01_RfidSim.tag[24].nic.phy 	nbFramesWithoutInterference 	14
scalar _01_RfidSim.tag[24].nic.phy 	nbFramesWithInterferencePartial 	0
scalar _01_RfidSim.tag[24].nic.phy 	nbFramesWithoutInterferencePartial 	0
scalar _01_RfidSim.tag[24].nic.phy 	nbFramesWithInterferenceDropped 	0
scalar _01_RfidSim.tag[24].nic.phy 	nbFramesWithoutInterferenceDropped 	0
scalar _01_RfidSim.tag[25].mobility 	x 	533.33333333333
scalar _01_RfidSim.tag[25].mobility 	y 	44.444444444444
scalar _01_RfidSim.tag[25].nic.phy 	nbFramesWithInterference 	11
scalar _01_RfidSim.tag[25].nic.phy 	nbFramesWithoutInterference 	18
scalar _01_RfidSim.tag[25].nic.phy 	nbFramesWithInterferencePartial 	0
scalar _01_RfidSim.tag[25].nic.phy 	nbFramesWithoutInterferencePartial 	0
scalar _01_RfidSim.tag[25].nic.phy 	nbFramesWithInterferenceDropped 	0
scalar _01_RfidSim.tag[25].nic.phy 	nbFramesWithoutInterferenceDropped 	0
scalar _01_RfidSim.tag[26].mobility 	x 	622.22222222222
scalar _01_RfidSim.tag[26].mobility 	y 	44.444444444444
scalar _01_RfidSim.tag[26].nic.phy 	nbFramesWithInterference 	16
scalar _01_RfidSim.tag[26].nic.phy 	nbFramesWithoutInterference 	46
scalar _01_RfidSim.tag[26].nic.phy 	nbFramesWithInterferencePartial 	0
scalar _01_RfidSim.tag[26].nic.phy 	nbFramesWithoutInterferencePartial 	0
scalar _01_RfidSim.tag[26].nic.phy 	nbFramesWithInterferenceDropped 	0
scalar _01_RfidSim.tag[26].nic.phy 	nbFramesWithoutInterferenceDropped 	0
scalar _01_RfidSim.tag[27].mobility 	x 	711.11111111111
scalar _01_RfidSim.tag[27].mobility 	y 	44.444444444444
scalar _01_RfidSim.tag[27].nic.phy 	nbFramesWithInterference 	8
scalar _01_RfidSim.tag[27].nic.phy 	nbFramesWithoutInterference 	67
scalar _01_RfidSim.tag[27].nic.phy 	nbFramesWithInterferencePartial 	0
scalar _01_RfidSim.tag[27].nic.phy 	nbFramesWithoutInterferencePartial 	0
scalar _01_RfidSim.tag[27].nic.phy 	nbFramesWithInterferenceDropped 	0
scalar _01_RfidSim.tag[27].nic.phy 	nbFramesWithoutInterferenceDropped 	0
scalar _01_RfidSim.tag[28].mobility 	x 	800
scalar _01_RfidSim.tag[28].mobility 	y 	44.444444444444
scalar _01_RfidSim.tag[28].nic.phy 	nbFramesWithInterference 	6
scalar _01_RfidSim.tag[28].nic.phy 	nbFramesWithoutInterference 	77
scalar _01_RfidSim.tag[28].nic.phy 	nbFramesWithInterferencePartial 	0
scalar _01_RfidSim.tag[28].nic.phy 	nbFramesWithoutInterferencePartial 	0
scalar _01_RfidSim.tag[28].nic.phy 	nbFramesWithInterferenceDropped 	1
scalar _01_RfidSim.tag[28].nic.phy 	nbFramesWithoutInterferenceDropped 	0
scalar _01_RfidSim.tag[29].mobility 	x 	888.88888888889
scalar _01_RfidSim.tag[29].mobility 	y 	44.444444444444
scalar _01_RfidSim.tag[29].nic.phy 	nbFramesWithInterference 	7
scalar _01_RfidSim.tag[29].nic.phy 	nbFramesWithoutInterference 	71
scalar _01_RfidSim.tag[29].nic.phy 	nbFramesWithInterferencePartial 	0
scalar _01_RfidSim.tag[29].nic.phy 	nbFramesWithoutInterferencePartial 	0
scalar _01_RfidSim.tag[29].nic.phy 	nbFramesWithInterferenceDropped 	0
scalar _01_RfidSim.tag[29].nic.phy 	nbFramesWithoutInterferenceDropped 	0
scalar _01_RfidSim.tag[30].mobility 	x 	977.77777777778
scalar _01_RfidSim.tag[30].mobility 	y 	44.444444444444
scalar _01_RfidSim.tag[30].nic.phy 	nbFramesWithInterference 	15
scalar _01_RfidSim.tag[30].nic.phy 	nbFramesWithoutInterference 	38
scalar _01_RfidSim.tag[30].nic.phy 	nbFramesWithInterferencePartial 	0
scalar _01_RfidSim.tag[30].nic.phy 	nbFramesWithoutInterferencePartial 	0
scalar _01_RfidSim.tag[30].nic.phy 	nbFramesWithInterferenceDropped 	0
scalar _01_RfidSim.tag[30].nic.phy 	nbFramesWithoutInterferenceDropped 	0
scalar _01_RfidSim.tag[31].mobility 	x 	1066.6666666667
scalar _01_RfidSim.tag[31].mobility 	y 	44.444444444444
scalar _01_RfidSim.tag[31].nic.phy 	nbFramesWithInterference 	7
scalar _01_RfidSim.tag[31].nic.phy 	nbFramesWithoutInterference 	14
scalar _01_RfidSim.tag[31].nic.phy 	nbFramesWithInterferencePartial 	0
scalar _01_RfidSim.tag[31].nic.phy 	nbFramesWithoutInterferencePartial 	0
scalar _01_RfidSim.tag[31].nic.phy 	nbFramesWithInterferenceDropped 	2
scalar _01_RfidSim.tag[31].nic.phy 	nbFramesWithoutInterferenceDropped 	0
scalar _01_RfidSim.tag[32].mobility 	x 	1155.5555555556
scalar _01_RfidSim.tag[32].mobility 	y 	44.444444444444
scalar _01_RfidSim.tag[32].nic.phy 	nbFramesWithInterference 	10
scalar _01_RfidSim.tag[32].nic.phy 	nbFramesWithoutInterference 	14
scalar _01_RfidSim.tag[32].nic.phy 	nbFramesWithInterferencePartial 	0
scalar _01_RfidSim.tag[32].nic.phy 	nbFramesWithoutInterferencePartial 	0
scalar _01_RfidSim.tag[32].nic.phy 	nbFramesWithInterferenceDropped 	0
scalar _01_RfidSim.tag[32].nic.phy 	nbFramesWithoutInterferenceDropped 	0
scalar _01_RfidSim.tag[33].mobility 	x 	1244.4444444444
scalar _01_RfidSim.tag[33].mobility 	y 	44.444444444444
scalar _01_RfidSim.tag[33].nic.phy 	nbFramesWithInterference 	8
scalar _01_RfidSim.tag[33].nic.phy 	nbFramesWithoutInterference 	53
scalar _01_RfidSim.tag[33].nic.phy 	nbFramesWithInterferencePartial 	0
scalar _01_RfidSim.tag[33].nic.phy 	nbFramesWithoutInterferencePartial 	0
scalar _01_RfidSim.tag[33].nic.phy 	nbFramesWithInterferenceDropped 	0
scalar _01_RfidSim.tag[33].nic.phy 	nbFramesWithoutInterferenceDropped 	0
scalar _01_RfidSim.tag[34].mobility 	x 	1333.3333333333
scalar _01_RfidSim.tag[34].mobility 	y 	44.444444444444
scalar _01_RfidSim.tag[34].nic.phy 	nbFramesWithInterference 	1
scalar _01_RfidSim.tag[34].nic.phy 	nbFramesWithoutInterference 	71
scalar _01_RfidSim.tag[34].nic.phy 	nbFramesWithInterferencePartial 	0
scalar _01_RfidSim.tag[34].nic.phy 	nbFramesWithoutInterferencePartial 	0
scalar _01_RfidSim.tag[34].nic.phy 	nbFramesWithInterferenceDropped 	0
scalar _01_RfidSim.tag[34].nic.phy 	nbFramesWithoutInterferenceDropped 	0
scalar _01_RfidSim.tag[35].mobility 	x 	1422.2222222222
scalar _01_RfidSim.tag[35].mobility 	y 	44.444444444444
scalar _01_RfidSim.tag[35].nic.phy 	nbFramesWithInterference 	1
scalar _01_RfidSim.tag[35].nic.phy 	nbFramesWithoutInterference 	71
scalar _01_RfidSim.tag[35].nic.phy 	nbFramesWithInterferencePartial 	0
scalar _01_RfidSim.tag[35].nic.phy 	nbFramesWithoutInterferencePartial 	0
scalar _01_RfidSim.tag[35].nic.phy 	nbFramesWithInterferenceDropped 	0
scalar _01_RfidSim.tag[35].nic.phy 	nbFramesWithoutInterferenceDropped 	0
scalar _01_RfidSim.tag[36].mobility 	x 	1511.1111111111
scalar _01_RfidSim.tag[36].mobility 	y 	44.444444444444
scalar _01_RfidSim.tag[36].nic.phy 	nbFramesWithInterference 	0
scalar _01_RfidSim.tag[36].nic.phy 	nbFramesWithoutInterference 	59
scalar _01_RfidSim.tag[36].nic.phy 	nbFramesWithInterferencePartial 	0
scalar _01_RfidSim.tag[36].nic.phy 	nbFramesWithoutInterferencePartial 	0
scalar _01_RfidSim.tag[36].nic.phy 	nbFramesWithInterferenceDropped 	0
scalar _01_RfidSim.tag[36].nic.phy 	nbFramesWithoutInterferenceDropped 	0
scalar _01_RfidSim.tag[37].mobility 	x 	1599
scalar _01_RfidSim.tag[37].mobility 	y 	44.444444444444
scalar _01_RfidSim.tag[37].nic.phy 	nbFramesWithInterference 	0
scalar _01_RfidSim.tag[37].nic.phy 	nbFramesWithoutInterference 	17
scalar _01_RfidSim.tag[37].nic.phy 	nbFramesWithInterferencePartial 	0
scalar _01_RfidSim.tag[37].nic.phy 	nbFramesWithoutInterferencePartial 	0
scalar _01_RfidSim.tag[37].nic.phy 	nbFramesWithInterferenceDropped 	0
scalar _01_RfidSim.tag[37].nic.phy 	nbFramesWithoutInterferenceDropped 	0
scalar _01_RfidSim.tag[38].mobility 	x 	0
scalar _01_RfidSim.tag[38].mobility 	y 	88.888888888889
scalar _01_RfidSim.tag[38].nic.phy 	nbFramesWithInterference 	1
scalar _01_RfidSim.tag[38].nic.phy 	nbFramesWithoutInterference 	16
scalar _01_RfidSim.tag[38].nic.phy 	nbFramesWithInterferencePartial 	0
scalar _01_RfidSim.tag[38].nic.phy 	nbFramesWithoutInterferencePartial 	0
scalar _01_RfidSim.tag[38].nic.phy 	nbFramesWithInterferenceDropped 	0
scalar _01_RfidSim.tag[38].nic.phy 	nbFramesWithoutInterferenceDropped 	0
scalar _01_RfidSim.tag[39].mobility 	x 	88.888888888889
scalar _01_RfidSim.tag[39].mobility 	y 	88.888888888889
scalar _01_RfidSim.tag[39].nic.phy 	nbFramesWithInterference 	1
scalar _01_RfidSim.tag[39].nic.phy 	nbFramesWithoutInterference 	63
scalar _01_RfidSim.tag[39].nic.phy 	nbFramesWithInterferencePartial 	0
scalar _01_RfidSim.tag[39].nic.phy 	nbFramesWithoutInterferencePartial 	0
scalar _01_RfidSim.tag[39].nic.phy 	nbFramesWithInterferenceDropped 	0
scalar _01_RfidSim.tag[39].nic.phy 	nbFramesWithoutInterferenceDropped 	0
scalar _01_RfidSim.tag[40].mobility 	x 	177.77777777778
scalar _01_RfidSim.tag[40].mobility 	y 	88.888888888889
scalar _01_RfidSim.tag[40].nic.phy 	nbFramesWithInterference 	1
scalar _01_RfidSim.tag[40].nic.phy 	nbFramesWithoutInterference 	74
scalar _01_RfidSim.tag[40].nic.phy 	nbFramesWithInterferencePartial 	0
scalar _01_RfidSim.tag[40].nic.phy 	nbFramesWithoutInterferencePartial 	0
scalar _01_RfidSim.tag[40].nic.phy 	nbFramesWithInterferenceDropped 	1
scalar _01_RfidSim.tag[40].nic.phy 	nbFramesWithoutInterferenceDropped 	0
scalar _01_RfidSim.tag[41].mobility 	x 	266.66666666667
scalar _01_RfidSim.tag[41].mobility 	y 	88.888888888889
scalar _01_RfidSim.tag[41].nic.phy 	nbFramesWithInterference 	4
scalar _01_RfidSim.tag[41].nic.phy 	nbFramesWithoutInterference 	75
scalar _01_RfidSim.tag[41].nic.phy 	nbFramesWithInterferencePartial 	0
scalar _01_RfidSim.tag[41].nic.phy 	nbFramesWithoutInterferencePartial 	0
scalar _01_RfidSim.tag[41].nic.phy 	nbFramesWithInterferenceDropped 	0
scalar _01_RfidSim.tag[41].nic.phy 	nbFramesWithoutInterferenceDropped 	0
scalar _01_RfidSim.tag[42].mobility 	x 	355.55555555556
scalar _01_RfidSim.tag[42].mobility 	y 	88.888888888889
scalar _01_RfidSim.tag[42].nic.phy 	nbFramesWithInterference 	8
scalar _01_RfidSim.tag[42].nic.phy 	nbFramesWithoutInterference 	60
scalar _01_RfidSim.tag[42].nic.phy 	nbFramesWithInterferencePartial 	0
scalar _01_RfidSim.tag[42].nic.phy 	nbFramesWithoutInterferencePartial 	0
scalar _01_RfidSim.tag[42].nic.phy 	nbFramesWithInterferenceDropped 	0
scalar _01_RfidSim.tag[42].nic.phy 	nbFramesWithoutInterferenceDropped 	0
scalar _01_RfidSim.tag[43].mobility 	x 	444.44444444444
scalar _01_RfidSim.tag[43].mobility 	y 	88.888888888889
scalar _01_RfidSim.tag[43].nic.phy 	nbFramesWithInterference 	14
scalar _01_RfidSim.tag[43].nic.phy 	nbFramesWithoutInterference 	14
scalar _01_RfidSim.tag[43].nic.phy 	nbFramesWithInterferencePartial 	0
scalar _01_RfidSim.tag[43].nic.phy 	nbFramesWithoutInterferencePartial 	0
scalar _01_RfidSim.tag[43].nic.phy 	nbFramesWithInterferenceDropped 	0
scalar _01_RfidSim.tag[43].nic.phy 	nbFramesWithoutInterferenceDropped 	0
scalar _01_RfidSim.tag[44].mobility 	x 	533.33333333333
scalar _01_RfidSim.tag[44].mobility 	y 	88.888888888889
scalar _01_RfidSim.tag[44].nic.phy 	nbFramesWithInterference 	14
scalar _01_RfidSim.tag[44].nic.phy 	nbFramesWithoutInterference 	15
scalar _01_RfidSim.tag[44].nic.phy 	nbFramesWithInterferencePartial 	0
scalar _01_RfidSim.tag[44].nic.phy 	nbFramesWithoutInterferencePartial 	0
scalar _01_RfidSim.tag[44].nic.phy 	nbFramesWithInterferenceDropped 	0
scalar _01_RfidSim.tag[44].nic.phy 	nbFramesWithoutInterferenceDropped 	0
scalar _01_RfidSim.tag[45].mobility 	x 	622.22222222222
scalar _01_RfidSim.tag[45].mobility 	y 	88.888888888889
scalar _01_RfidSim.tag[45].nic.phy 	nbFramesWithInterference 	14
scalar _01_RfidSim.tag[45].nic.phy 	nbFramesWithoutInterference 	23
scalar _01_RfidSim.tag[45].nic.phy 	nbFramesWithInterferencePartial 	0
scalar _01_RfidSim.tag[45].nic.phy 	nbFramesWithoutInterferencePartial 	0
scalar _01_RfidSim.tag[45].nic.phy 	nbFramesWithInterferenceDropped 	0
scalar _01_RfidSim.tag[45].nic.phy 	nbFramesWithoutInterferenceDropped 	0
scalar _01_RfidSim.tag[46].mobility 	x 	711.11111111111
scalar _01_RfidSim.tag[46].mobility 	y 	88.888888888889
scalar _01_RfidSim.tag[46].nic.phy 	nbFramesWithInterference 	10
scalar _01_RfidSim.tag[46].nic.phy 	nbFramesWithoutInterference 	70
scalar _01_RfidSim.tag[46].nic.phy 	nbFramesWithInterferencePartial 	0
scalar _01_RfidSim.tag[46].nic.phy 	nbFramesWithoutInterferencePartial 	0
scalar _01_RfidSim.tag[46].nic.phy 	nbFramesWithInterferenceDropped 	2
scalar _01_RfidSim.tag[46].nic.phy 	nbFramesWithoutInterferenceDropped 	0
scalar _01_RfidSim.tag[47].mobility 	x 	800
scalar _01_RfidSim.tag[47].mobility 	y 	88.888888888889
scalar _01_RfidSim.tag[47].nic.phy 	nbFramesWithInterference 	10
scalar _01_RfidSim.tag[47].nic.phy 	nbFramesWithoutInterference 	78
scalar _01_RfidSim.tag[47].nic.phy 	nbFramesWithInterferencePartial 	0
scalar _01_RfidSim.tag[47].nic.phy 	nbFramesWithoutInterferencePartial 	0
scalar _01_RfidSim.tag[47].nic.phy 	nbFramesWithInterferenceDropped 	3
scalar _01_RfidSim.tag[47].nic.phy 	nbFramesWithoutInterferenceDropped 	0
scalar _01_RfidSim.tag[48].mobility 	x 	888.88888888889
scalar _01_RfidSim.tag[48].mobility 	y 	88.888888888889
scalar _01_RfidSim.tag[48].nic.phy 	nbFramesWithInterference 	12
scalar _01_RfidSim.tag[48].nic.phy 	nbFramesWithoutInterference 	68
scalar _01_RfidSim.tag[48].nic.phy 	nbFramesWithInterferencePartial 	0
scalar _01_RfidSim.tag[48].nic.phy 	nbFramesWithoutInterferencePartial 	0
scalar _01_RfidSim.tag[48].nic.phy 	nbFramesWithInterferenceDropped 	1
scalar _01_RfidSim.tag[48].nic.phy 	nbFramesWithoutInterferenceDropped 	0
scalar _01_RfidSim.tag[49].mobility 	x 	977.77777777778
scalar _01_RfidSim.tag[49].mobility 	y 	88.888888888889
scalar _01_RfidSim.tag[49].nic.phy 	nbFramesWithInterference 	10
scalar _01_RfidSim.tag[49].nic.phy 	nbFramesWithoutInterference 	17
scalar _01_RfidSim.tag[49].nic.phy 	nbFramesWithInterferencePartial 	0
scalar _01_RfidSim.tag[49].nic.phy 	nbFramesWithoutInterferencePartial 	0
scalar _01_RfidSim.tag[49].nic.phy 	nbFramesWithInterferenceDropped 	3
scalar _01_RfidSim.tag[49].nic.phy 	nbFramesWithoutInterferenceDropped 	0
scalar _01_RfidSim.tag[50].mobility 	x 	1066.6666666667
scalar _01_RfidSim.tag[50].mobility 	y 	88.888888888889
scalar _01_RfidSim.tag[50].nic.phy 	nbFramesWithInterference 	11
scalar _01_RfidSim.tag[50].nic.phy 	nbFramesWithoutInterference 	10
scalar _01_RfidSim.tag[50].nic.phy 	nbFramesWithInterferencePartial 	0
scalar _01_RfidSim.tag[50].nic.phy 	nbFramesWithoutInterferencePartial 	0
scalar _01_RfidSim.tag[50].nic.phy 	nbFramesWithInterferenceDropped 	2
scalar _01_RfidSim.tag[50].nic.phy 	nbFramesWithoutInterferenceDropped 	0
scalar _01_RfidSim.tag[51].mobility 	x 	1155.5555555556
scalar _01_RfidSim.tag[51].mobility 	y 	88.888888888889
scalar _01_RfidSim.tag[51].nic.phy 	nbFramesWithInterference 	12
scalar _01_RfidSim.tag[51].nic.phy 	nbFramesWithoutInterference 	17
scalar _01_RfidSim.tag[51].nic.phy 	nbFramesWithInterferencePartial 	0
scalar _01_RfidSim.tag[51].nic.phy 	nbFramesWithoutInterferencePartial 	0
scalar _01_RfidSim.tag[51].nic.phy 	nbFramesWithInterferenceDropped 	0
scalar _01_RfidSim.tag[51].nic.phy 	nbFramesWithoutInterferenceDropped 	0
scalar _01_RfidSim.tag[52].mobility 	x 	1244.4444444444
scalar _01_RfidSim.tag[52].mobility 	y 	88.888888888889
scalar _01_RfidSim.tag[52].nic.phy 	nbFramesWithInterference 	9
scalar _01_RfidSim.tag[52].nic.phy 	nbFramesWithoutInterference 	59
scalar _01_RfidSim.tag[52].nic.phy 	nbFramesWithInterferencePartial 	0
scalar _01_RfidSim.tag[52].nic.phy 	nbFramesWithoutInterferencePartial 	0
scalar _01_RfidSim.tag[52].nic.phy 	nbFramesWithInterferenceDropped 	0
scalar _01_RfidSim.tag[52].nic.phy 	nbFramesWithoutInterferenceDropped 	0
scalar _01_RfidSim.tag[53].mobility 	x 	1333.3333333333
scalar _01_RfidSim.tag[53].mobility 	y 	88.888888888889
scalar _01_RfidSim.tag[53].nic.phy 	nbFramesWithInterference 	3
scalar _01_RfidSim.tag[53].nic.phy 	nbFramesWithoutInterference 	79
scalar _01_RfidSim.tag[53].nic.phy 	nbFramesWithInterferencePartial 	0
scalar _01_RfidSim.tag[53].nic.phy 	nbFramesWithoutInterferencePartial 	0
scalar _01_RfidSim.tag[53].nic.phy 	nbFramesWithInterferenceDropped 	0
scalar _01_RfidSim.tag[53].nic.phy 	nbFramesWithoutInterferenceDropped 	0
scalar _01_RfidSim.tag[54].mobility 	x 	1422.2222222222
scalar _01_RfidSim.tag[54].mobility 	y 	88.888888888889
scalar _01_RfidSim.tag[54].nic.phy 	nbFramesWithInterference 	2
scalar _01_RfidSim.tag[54].nic.phy 	nbFramesWithoutInterference 	77
scalar _01_RfidSim.tag[54].nic.phy 	nbFramesWithInterferencePartial 	0
scalar _01_RfidSim.tag[54].nic.phy 	nbFramesWithoutInterferencePartial 	0
scalar _01_RfidSim.tag[54].nic.phy 	nbFramesWithInterferenceDropped 	0
scalar _01_RfidSim.tag[54].nic.phy 	nbFramesWithoutInterferenceDropped 	0
scalar _01_RfidSim.tag[55].mobility 	x 	1511.1111111111
scalar _01_RfidSim.tag[55].mobility 	y 	88.888888888889
scalar _01_RfidSim.tag[55].nic.phy 	nbFramesWithInterference 	1
scalar _01_RfidSim.tag[55].nic.phy 	nbFramesWithoutInterference 	66
scalar _01_RfidSim.tag[55].nic.phy 	nbFramesWithInterferencePartial 	0
scalar _01_RfidSim.tag[55].nic.phy 	nbFramesWithoutInterferencePartial 	0
scalar _01_RfidSim.tag[55].nic.phy 	nbFramesWithInterferenceDropped 	0
scalar _01_RfidSim.tag[55].nic.phy 	nbFramesWithoutInterferenceDropped 	0
scalar _01_RfidSim.tag[56].mobility 	x 	1599
scalar _01_RfidSim.tag[56].mobility 	y 	88.888888888889
scalar _01_RfidSim.tag[56].nic.phy 	nbFramesWithInterference 	0
scalar _01_RfidSim.tag[56].nic.phy 	nbFramesWithoutInterference 	19
scalar _01_RfidSim.tag[56].nic.phy 	nbFramesWithInterferencePartial 	0
scalar _01_RfidSim.tag[56].nic.phy 	nbFramesWithoutInterferencePartial 	0
scalar _01_RfidSim.tag[56].nic.phy 	nbFramesWithInterferenceDropped 	0
scalar _01_RfidSim.tag[56].nic.phy 	nbFramesWithoutInterferenceDropped 	0
scalar _01_RfidSim.tag[57].mobility 	x 	0
scalar _01_RfidSim.tag[57].mobility 	y 	133.33333333333
scalar _01_RfidSim.tag[57].nic.phy 	nbFramesWithInterference 	1
scalar _01_RfidSim.tag[57].nic.phy 	nbFramesWithoutInterference 	20
scalar _01_RfidSim.tag[57].nic.phy 	nbFramesWithInterferencePartial 	0
scalar _01_RfidSim.tag[57].nic.phy 	nbFramesWithoutInterferencePartial 	0
scalar _01_RfidSim.tag[57].nic.phy 	nbFramesWithInterferenceDropped 	0
scalar _01_RfidSim.tag[57].nic.phy 	nbFramesWithoutInterferenceDropped 	0
scalar _01_RfidSim.tag[58].mobility 	x 	88.888888888889
scalar _01_RfidSim.tag[58].mobility 	y 	133.33333333333
scalar _01_RfidSim.tag[58].nic.phy 	nbFramesWithInterference 	2
scalar _01_RfidSim.tag[58].nic.phy 	nbFramesWithoutInterference 	34
scalar _01_RfidSim.tag[58].nic.phy 	nbFramesWithInterferencePartial 	0
scalar _01_RfidSim.tag[58].nic.phy 	nbFramesWithoutInterferencePartial 	0
scalar _01_RfidSim.tag[58].nic.phy 	nbFramesWithInterferenceDropped 	1
scalar _01_RfidSim.tag[58].nic.phy 	nbFramesWithoutInterferenceDropped 	0
scalar _01_RfidSim.tag[59].mobility 	x 	177.77777777778
scalar _01_RfidSim.tag[59].mobility 	y 	133.33333333333
scalar _01_RfidSim.tag[59].nic.phy 	nbFramesWithInterference 	3
scalar _01_RfidSim.tag[59].nic.phy 	nbFramesWithoutInterference 	78
scalar _01_RfidSim.tag[59].nic.phy 	nbFramesWithInterferencePartial 	0
scalar _01_RfidSim.tag[59].nic.phy 	nbFramesWithoutInterferencePartial 	0
scalar _01_RfidSim.tag[59].nic.phy 	nbFramesWithInterferenceDropped 	0
scalar _01_RfidSim.tag[59].nic.phy 	nbFramesWithoutInterferenceDropped 	0
scalar _01_RfidSim.tag[60].mobility 	x 	266.66666666667
scalar _01_RfidSim.tag[60].mobility 	y 	133.33333333333
scalar _01_RfidSim.tag[60].nic.phy 	nbFramesWithInterference 	4
scalar _01_RfidSim.tag[60].nic.phy 	nbFramesWithoutInterference 	79
scalar _01_RfidSim.tag[60].nic.phy 	nbFramesWithInterferencePartial 	0
scalar _01_RfidSim.tag[60].nic.phy 	nbFramesWithoutInterferencePartial 	0
scalar _01_RfidSim.tag[60].nic.phy 	nbFramesWithInterferenceDropped 	1
scalar _01_RfidSim.tag[60].nic.phy 	nbFramesWithoutInterferenceDropped 	0
scalar _01_RfidSim.tag[61].mobility 	x 	355.55555555556
scalar _01_RfidSim.tag[61].mobility 	y 	133.33333333333
scalar _01_RfidSim.tag[61].nic.phy 	nbFramesWithInterference 	8
scalar _01_RfidSim.tag[61].nic.phy 	nbFramesWithoutInterference 	65
scalar _01_RfidSim.tag[61].nic.phy 	nbFramesWithInterferencePartial 	0
scalar _01_RfidSim.tag[61].nic.phy 	nbFramesWithoutInterferencePartial 	0
scalar _01_RfidSim.tag[61].nic.phy 	nbFramesWithInterferenceDropped 	0
scalar _01_RfidSim.tag[61].nic.phy 	nbFramesWithoutInterferenceDropped 	0
scalar _01_RfidSim.tag[62].mobility 	x 	444.44444444444
scalar _01_RfidSim.tag[62].mobility 	y 	133.33333333333
scalar _01_RfidSim.tag[62].nic.phy 	nbFramesWithInterference 	12
scalar _01_RfidSim.tag[62].nic.phy 	nbFramesWithoutInterference 	15
scalar _01_RfidSim.tag[62].nic.phy 	nbFramesWithInterferencePartial 	0
scalar _01_RfidSim.tag[62].nic.phy 	nbFramesWithoutInterferencePartial 	0
scalar _01_RfidSim.tag[62].nic.phy 	nbFramesWithInterferenceDropped 	0
scalar _01_RfidSim.tag[62].nic.phy 	nbFramesWithoutInterferenceDropped 	0
scalar _01_RfidSim.tag[63].mobility 	x 	533.33333333333
scalar _01_RfidSim.tag[63].mobility 	y 	133.33333333333
scalar _01_RfidSim.tag[63].nic.phy 	nbFramesWithInterference 	18
scalar _01_RfidSim.tag[63].nic.phy 	nbFramesWithoutInterference 	5
scalar _01_RfidSim.tag[63].nic.phy 	nbFramesWithInterferencePartial 	0
scalar _01_RfidSim.tag[63].nic.phy 	nbFramesWithoutInterferencePartial 	0
scalar _01_RfidSim.tag[63].nic.phy 	nbFramesWithInterferenceDropped 	0
scalar _01_RfidSim.tag[63].nic.phy 	nbFramesWithoutInterferenceDropped 	0
scalar _01_RfidSim.tag[64].mobility 	x 	622.22222222222
scalar _01_RfidSim.tag[64].mobility 	y 	133.33333333333
scalar _01_RfidSim.tag[64].nic.phy 	nbFramesWithInterference 	14
scalar _01_RfidSim.tag[64].nic.phy 	nbFramesWithoutInterference 	28
scalar _01_RfidSim.tag[64].nic.phy 	nbFramesWithInterferencePartial 	0
scalar _01_RfidSim.tag[64].nic.phy 	nbFramesWithoutInterferencePartial 	0
scalar _01_RfidSim.tag[64].nic.phy 	nbFramesWithInterferenceDropped 	0
scalar _01_RfidSim.tag[64].nic.phy 	nbFramesWithoutInterferenceDropped 	0
scalar _01_RfidSim.tag[65].mobility 	x 	711.11111111111
scalar _01_RfidSim.tag[65].mobility 	y 	133.33333333333
scalar _01_RfidSim.tag[65].nic.phy 	nbFramesWithInterference 	11
scalar _01_RfidSim.tag[65].nic.phy 	nbFramesWithoutInterference 	76
scalar _01_RfidSim.tag[65].nic.phy 	nbFramesWithInterferencePartial 	0
scalar _01_RfidSim.tag[65].nic.phy 	nbFramesWithoutInterferencePartial 	0
scalar _01_RfidSim.tag[65].nic.phy 	nbFramesWithInterferenceDropped 	1
scalar _01_RfidSim.tag[65].nic.phy 	nbFramesWithoutInterferenceDropped 	0
scalar _01_RfidSim.tag[66].mobility 	x 	800
scalar _01_RfidSim.tag[66].mobility 	y 	133.33333333333
scalar _01_RfidSim.tag[66].nic.phy 	nbFramesWithInterference 	12
scalar _01_RfidSim.tag[66].nic.phy 	nbFramesWithoutInterference 	82
scalar _01_RfidSim.tag[66].nic.phy 	nbFramesWithInterferencePartial 	0
scalar _01_RfidSim.tag[66].nic.phy 	nbFramesWithoutInterferencePartial 	0
scalar _01_RfidSim.tag[66].nic.phy 	nbFramesWithInterferenceDropped 	1
scalar _01_RfidSim.tag[66].nic.phy 	nbFramesWithoutInterferenceDropped 	0
scalar _01_RfidSim.tag[67].mobility 	x 	888.88888888889
scalar _01_RfidSim.tag[67].mobility 	y 	133.33333333333
scalar _01_RfidSim.tag[67].nic.phy 	nbFramesWithInterference 	18
scalar _01_RfidSim.tag[67].nic.phy 	nbFramesWithoutInterference 	68
scalar _01_RfidSim.tag[67].nic.phy 	nbFramesWithInterferencePartial 	0
scalar _01_RfidSim.tag[67].nic.phy 	nbFramesWithoutInterferencePartial 	0
scalar _01_RfidSim.tag[67].nic.phy 	nbFramesWithInterferenceDropped 	2
scalar _01_RfidSim.tag[67].nic.phy 	nbFramesWithoutInterferenceDropped 	0
scalar _01_RfidSim.tag[68].mobility 	x 	977.77777777778
scalar _01_RfidSim.tag[68].mobility 	y 	133.33333333333
scalar _01_RfidSim.tag[68].nic.phy 	nbFramesWithInterference 	14
scalar _01_RfidSim.tag[68].nic.phy 	nbFramesWithoutInterference 	20
scalar _01_RfidSim.tag[68].nic.phy 	nbFramesWithInterferencePartial 	0
scalar _01_RfidSim.tag[68].nic.phy 	nbFramesWithoutInterferencePartial 	0
scalar _01_RfidSim.tag[68].nic.phy 	nbFramesWithInterferenceDropped 	2
scalar _01_RfidSim.tag[68].nic.phy 	nbFramesWithoutInterferenceDropped 	0
scalar _01_RfidSim.tag[69].mobility 	x 	1066.6666666667
scalar _01_RfidSim.tag[69].mobility 	y 	133.33333333333
scalar _01_RfidSim.tag[69].nic.phy 	nbFramesWithInterference 	14
scalar _01_RfidSim.tag[69].nic.phy 	nbFramesWithoutInterference 	5
scalar _01_RfidSim.tag[69].nic.phy 	nbFramesWithInterferencePartial 	0
scalar _01_RfidSim.tag[69].nic.phy 	nbFramesWithoutInterferencePartial 	0
scalar _01_RfidSim.tag[69].nic.phy 	nbFramesWithInterferenceDropped 	1
scalar _01_RfidSim.tag[69].nic.phy 	nbFramesWithoutInterferenceDropped 	0
scalar _01_RfidSim.tag[70].mobility 	x 	1155.5555555556
scalar _01_RfidSim.tag[70].mobility 	y 	133.33333333333
scalar _01_RfidSim.tag[70].nic.phy 	nbFramesWithInterference 	13
scalar _01_RfidSim.tag[70].nic.phy 	nbFramesWithoutInterference 	15
scalar _01_RfidSim.tag[70].nic.phy 	nbFramesWithInterferencePartial 	0
scalar _01_RfidSim.tag[70].nic.phy 	nbFramesWithoutInterferencePartial 	0
scalar _01_RfidSim.tag[70].nic.phy 	nbFramesWithInterferenceDropped 	0
scalar _01_RfidSim.tag[70].nic.phy 	nbFramesWithoutInterferenceDropped 	0
scalar _01_RfidSim.tag[71].mobility 	x 	1244.4444444444
scalar _01_RfidSim.tag[71].mobility 	y 	133.33333333333
scalar _01_RfidSim.tag[71].nic.phy 	nbFramesWithInterference 	12
scalar _01_RfidSim.tag[71].nic.phy 	nbFramesWithoutInterference 	60
scalar _01_RfidSim.tag[71].nic.phy 	nbFramesWithInterferencePartial 	0
scalar _01_RfidSim.tag[71].nic.phy 	nbFramesWithoutInterferencePartial 	0
scalar _01_RfidSim.tag[71].nic.phy 	nbFramesWithInterferenceDropped 	0
scalar _01_RfidSim.tag[71].nic.phy 	nbFramesWithoutInterferenceDropped 	0
scalar _01_RfidSim.tag[72].mobility 	x 	1333.3333333333
scalar _01_RfidSim.tag[72].mobility 	y 	133.33333333333
scalar _01_RfidSim.tag[72].nic.phy 	nbFramesWithInterference 	8
scalar _01_RfidSim.tag[72].nic.phy 	nbFramesWithoutInterference 	78
scalar _01_RfidSim.tag[72].nic.phy 	nbFramesWithInterferencePartial 	0
scalar _01_RfidSim.tag[72].nic.phy 	nbFramesWithoutInterferencePartial 	0
scalar _01_RfidSim.tag[72].nic.phy 	nbFramesWithInterferenceDropped 	0
scalar _01_RfidSim.tag[72].nic.phy 	nbFramesWithoutInterferenceDropped 	0
scalar _01_RfidSim.tag[73].mobility 	x 	1422.2222222222
scalar _01_RfidSim.tag[73].mobility 	y 	133.33333333333
scalar _01_RfidSim.tag[73].nic.phy 	nbFramesWithInterference 	3
scalar _01_RfidSim.tag[73].nic.phy 	nbFramesWithoutInterference 	80
scalar _01_RfidSim.tag[73].nic.phy 	nbFramesWithInterferencePartial 	0
scalar _01_RfidSim.tag[73].nic.phy 	nbFramesWithoutInterferencePartial 	0
scalar _01_RfidSim.tag[73].nic.phy 	nbFramesWithInterferenceDropped 	0
scalar _01_RfidSim.tag[73].nic.phy 	nbFramesWithoutInterferenceDropped 	0
scalar _01_RfidSim.tag[74].mobility 	x 	1511.1111111111
scalar _01_RfidSim.tag[74].mobility 	y 	133.33333333333
scalar _01_RfidSim.tag[74].nic.phy 	nbFramesWithInterference 	2
scalar _01_RfidSim.tag[74].nic.phy 	nbFramesWithoutInterference 	36
scalar _01_RfidSim.tag[74].nic.phy 	nbFramesWithInterferencePartial 	0
scalar _01_RfidSim.tag[74].nic.phy 	nbFramesWithoutInterferencePartial 	0
scalar _01_RfidSim.tag[74].nic.phy 	nbFramesWithInterferenceDropped 	0
scalar _01_RfidSim.tag[74].nic.phy 	nbFramesWithoutInterferenceDropped 	0
scalar _01_RfidSim.tag[75].mobility 	x 	1599
scalar _01_RfidSim.tag[75].mobility 	y 	133.33333333333
scalar _01_RfidSim.tag[75].nic.phy 	nbFramesWithInterference 	1
scalar _01_RfidSim.tag[75].nic.phy 	nbFramesWithoutInterference 	25
scalar _01_RfidSim.tag[75].nic.phy 	nbFramesWithInterferencePartial 	0
scalar _01_RfidSim.tag[75].nic.phy 	nbFramesWithoutInterferencePartial 	0
scalar _01_RfidSim.tag[75].nic.phy 	nbFramesWithInterferenceDropped 	0
scalar _01_RfidSim.tag[75].nic.phy 	nbFramesWithoutInterferenceDropped 	0
scalar _01_RfidSim.tag[76].mobility 	x 	0
scalar _01_RfidSim.tag[76].mobility 	y 	177.77777777778
scalar _01_RfidSim.tag[76].nic.phy 	nbFramesWithInterference 	1
scalar _01_RfidSim.tag[76].nic.phy 	nbFramesWithoutInterference 	22
scalar _01_RfidSim.tag[76].nic.phy 	nbFramesWithInterferencePartial 	0
scalar _01_RfidSim.tag[76].nic.phy 	nbFramesWithoutInterferencePartial 	0
scalar _01_RfidSim.tag[76].nic.phy 	nbFramesWithInterferenceDropped 	0
scalar _01_RfidSim.tag[76].nic.phy 	nbFramesWithoutInterferenceDropped 	0
scalar _01_RfidSim.tag[77].mobility 	x 	88.888888888889
scalar _01_RfidSim.tag[77].mobility 	y 	177.77777777778
scalar _01_RfidSim.tag[77].nic.phy 	nbFramesWithInterference 	4
scalar _01_RfidSim.tag[77].nic.phy 	nbFramesWithoutInterference 	38
scalar _01_RfidSim.tag[77].nic.phy 	nbFramesWithInterferencePartial 	0
scalar _01_RfidSim.tag[77].nic.phy 	nbFramesWithoutInterferencePartial 	0
scalar _01_RfidSim.tag[77].nic.phy 	nbFramesWithInterferenceDropped 	1
scalar _01_RfidSim.tag[77].nic.phy 	nbFramesWithoutInterferenceDropped 	0
scalar _01_RfidSim.tag[78].mobility 	x 	177.77777777778
scalar _01_RfidSim.tag[78].mobility 	y 	177.77777777778
scalar _01_RfidSim.tag[78].nic.phy 	nbFramesWithInterference 	4
scalar _01_RfidSim.tag[78].nic.phy 	nbFramesWithoutInterference 	85
scalar _01_RfidSim.tag[78].nic.phy 	nbFramesWithInterferencePartial 	0
scalar _01_RfidSim.tag[78].nic.phy 	nbFramesWithoutInterferencePartial 	0
scalar _01_RfidSim.tag[78].nic.phy 	nbFramesWithInterferenceDropped 	1
scalar _01_RfidSim.tag[78].nic.phy 	nbFramesWithoutInterferenceDropped 	0
scalar _01_RfidSim.tag[79].mobility 	x 	266.66666666667
scalar _01_RfidSim.tag[79].mobility 	y 	177.77777777778
scalar _01_RfidSim.tag[79].nic.phy 	nbFramesWithInterference 	6
scalar _01_RfidSim.tag[79].nic.phy 	nbFramesWithoutInterference 	82
scalar _01_RfidSim.tag[79].nic.phy 	nbFramesWithInterferencePartial 	0
scalar _01_RfidSim.tag[79].nic.phy 	nbFramesWithoutInterferencePartial 	0
scalar _01_RfidSim.tag[79].nic.phy 	nbFramesWithInterferenceDropped 	1
scalar _01_RfidSim.tag[79].nic.phy 	nbFramesWithoutInterferenceDropped 	0
scalar _01_RfidSim.tag[80].mobility 	x 	355.55555555556
scalar _01_RfidSim.tag[80].mobility 	y 	177.77777777778
scalar _01_RfidSim.tag[80].nic.phy 	nbFramesWithInterference 	9
scalar _01_RfidSim.tag[80].nic.phy 	nbFramesWithoutInterference 	35
scalar _01_RfidSim.tag[80].nic.phy 	nbFramesWithInterferencePartial 	0
scalar _01_RfidSim.tag[80].nic.phy 	nbFramesWithoutInterferencePartial 	0
scalar _01_RfidSim.tag[80].nic.phy 	nbFramesWithInterferenceDropped 	0
scalar _01_RfidSim.tag[80].nic.phy 	nbFramesWithoutInterferenceDropped 	0
scalar _01_RfidSim.tag[81].mobility 	x 	444.44444444444
scalar _01_RfidSim.tag[81].mobility 	y 	177.77777777778
scalar _01_RfidSim.tag[81].nic.phy 	nbFramesWithInterference 	18
scalar _01_RfidSim.tag[81].nic.phy 	nbFramesWithoutInterference 	7
scalar _01_RfidSim.tag[81].nic.phy 	nbFramesWithInterferencePartial 	0
scalar _01_RfidSim.tag[81].nic.phy 	nbFramesWithoutInterferencePartial 	0
scalar _01_RfidSim.tag[81].nic.phy 	nbFramesWithInterferenceDropped 	0
scalar _01_RfidSim.tag[81].nic.phy 	nbFramesWithoutInterferenceDropped 	0
scalar _01_RfidSim.tag[82].mobility 	x 	533.33333333333
scalar _01_RfidSim.tag[82].mobility 	y 	177.77777777778
scalar _01_RfidSim.tag[82].nic.phy 	nbFramesWithInterference 	19
scalar _01_RfidSim.tag[82].nic.phy 	nbFramesWithoutInterference 	7
scalar _01_RfidSim.tag[82].nic.phy 	nbFramesWithInterferencePartial 	0
scalar _01_RfidSim.tag[82].nic.phy 	nbFramesWithoutInterferencePartial 	0
scalar _01_RfidSim.tag[82].nic.phy 	nbFramesWithInterferenceDropped 	0
scalar _01_RfidSim.tag[82].nic.phy 	nbFramesWithoutInterferenceDropped 	0
scalar _01_RfidSim.tag[83].mobility 	x 	622.22222222222
scalar _01_RfidSim.tag[83].mobility 	y 	177.77777777778
scalar _01_RfidSim.tag[83].nic.phy 	nbFramesWithInterference 	14
scalar _01_RfidSim.tag[83].nic.phy 	nbFramesWithoutInterference 	33
scalar _01_RfidSim.tag[83].nic.phy 	nbFramesWithInterferencePartial 	0
scalar _01_RfidSim.tag[83].nic.phy 	nbFramesWithoutInterferencePartial 	0
scalar _01_RfidSim.tag[83].nic.phy 	nbFramesWithInterferenceDropped 	1
scalar _01_RfidSim.tag[83].nic.phy 	nbFramesWithoutInterferenceDropped 	0
scalar _01_RfidSim.tag[84].mobility 	x 	711.11111111111
scalar _01_RfidSim.tag[84].mobility 	y 	177.77777777778
scalar _01_RfidSim.tag[84].nic.phy 	nbFramesWithInterference 	10
scalar _01_RfidSim.tag[84].nic.phy 	nbFramesWithoutInterference 	52
scalar _01_RfidSim.tag[84].nic.phy 	nbFramesWithInterferencePartial 	0
scalar _01_RfidSim.tag[84].nic.phy 	nbFramesWithoutInterferencePartial 	0
scalar _01_RfidSim.tag[84].nic.phy 	nbFramesWithInterferenceDropped 	3
scalar _01_RfidSim.tag[84].nic.phy 	nbFramesWithoutInterferenceDropped 	0
scalar _01_RfidSim.tag[85].mobility 	x 	800
scalar _01_RfidSim.tag[85].mobility 	y 	177.77777777778
scalar _01_RfidSim.tag[85].nic.phy 	nbFramesWithInterference 	12
scalar _01_RfidSim.tag[85].nic.phy 	nbFramesWithoutInterference 	86
scalar _01_RfidSim.tag[85].nic.phy 	nbFramesWithInterferencePartial 	0
scalar _01_RfidSim.tag[85].nic.phy 	nbFramesWithoutInterferencePartial 	0
scalar _01_RfidSim.tag[85].nic.phy 	nbFramesWithInterferenceDropped 	1
scalar _01_RfidSim.tag[85].nic.phy 	nbFramesWithoutInterferenceDropped 	0
scalar _01_RfidSim.tag[86].mobility 	x 	888.88888888889
scalar _01_RfidSim.tag[86].mobility 	y 	177.77777777778
scalar _01_RfidSim.tag[86].nic.phy 	nbFramesWithInterference 	15
scalar _01_RfidSim.tag[86].nic.phy 	nbFramesWithoutInterference 	45
scalar _01_RfidSim.tag[86].nic.phy 	nbFramesWithInterferencePartial 	0
scalar _01_RfidSim.tag[86].nic.phy 	nbFramesWithoutInterferencePartial 	0
scalar _01_RfidSim.tag[86].nic.phy 	nbFramesWithInterferenceDropped 	2
scalar _01_RfidSim.tag[86].nic.phy 	nbFramesWithoutInterferenceDropped 	0
scalar _01_RfidSim.tag[87].mobility 	x 	977.77777777778
scalar _01_RfidSim.tag[87].mobility 	y 	177.77777777778
scalar _01_RfidSim.tag[87].nic.phy 	nbFramesWithInterference 	15
scalar _01_RfidSim.tag[87].nic.phy 	nbFramesWithoutInterference 	26
scalar _01_RfidSim.tag[87].nic.phy 	nbFramesWithInterferencePartial 	0
scalar _01_RfidSim.tag[87].nic.phy 	nbFramesWithoutInterferencePartial 	0
scalar _01_RfidSim.tag[87].nic.phy 	nbFramesWithInterferenceDropped 	3
scalar _01_RfidSim.tag[87].nic.phy 	nbFramesWithoutInterferenceDropped 	0
scalar _01_RfidSim.tag[88].mobility 	x 	1066.6666666667
scalar _01_RfidSim.tag[88].mobility 	y 	177.77777777778
scalar _01_RfidSim.tag[88].nic.phy 	nbFramesWithInterference 	19
scalar _01_RfidSim.tag[88].nic.phy 	nbFramesWithoutInterference 	11
scalar _01_RfidSim.tag[88].nic.phy 	nbFramesWithInterferencePartial 	0
scalar _01_RfidSim.tag[88].nic.phy 	nbFramesWithoutInterferencePartial 	0
scalar _01_RfidSim.tag[88].nic.phy 	nbFramesWithInterferenceDropped 	0
scalar _01_RfidSim.tag[88].nic.phy 	nbFramesWithoutInterferenceDropped 	0
scalar _01_RfidSim.tag[89].mobility 	x 	1155.5555555556
scalar _01_RfidSim.tag[89].mobility 	y 	177.77777777778
scalar _01_RfidSim.tag[89].nic.phy 	nbFramesWithInterference 	13
scalar _01_RfidSim.tag[89].nic.phy 	nbFramesWithoutInterference 	12
scalar _01_RfidSim.tag[89].nic.phy 	nbFramesWithInterferencePartial 	0
scalar _01_RfidSim.tag[89].nic.phy 	nbFramesWithoutInterferencePartial 	0
scalar _01_RfidSim.tag[89].nic.phy 	nbFramesWithInterferenceDropped 	0
scalar _01_RfidSim.tag[89].nic.phy 	nbFramesWithoutInterferenceDropped 	0
scalar _01_RfidSim.tag[90].mobility 	x 	1244.4444444444
scalar _01_RfidSim.tag[90].mobility 	y 	177.77777777778
scalar _01_RfidSim.tag[90].nic.phy 	nbFramesWithInterference 	9
scalar _01_RfidSim.tag[90].nic.phy 	nbFramesWithoutInterference 	37
scalar _01_RfidSim.tag[90].nic.phy 	nbFramesWithInterferencePartial 	0
scalar _01_RfidSim.tag[90].nic.phy 	nbFramesWithoutInterferencePartial 	0
scalar _01_RfidSim.tag[90].nic.phy 	nbFramesWithInterferenceDropped 	0
scalar _01_RfidSim.tag[90].nic.phy 	nbFramesWithoutInterferenceDropped 	0
scalar _01_RfidSim.tag[91].mobility 	x 	1333.3333333333
scalar _01_RfidSim.tag[91].mobility 	y 	177.77777777778
scalar _01_RfidSim.tag[91].nic.phy 	nbFramesWithInterference 	10
scalar _01_RfidSim.tag[91].nic.phy 	nbFramesWithoutInterference 	79
scalar _01_RfidSim.tag[91].nic.phy 	nbFramesWithInterferencePartial 	0
scalar _01_RfidSim.tag[91].nic.phy 	nbFramesWithoutInterferencePartial 	0
scalar _01_RfidSim.tag[91].nic.phy 	nbFramesWithInterferenceDropped 	0
scalar _01_RfidSim.tag[91].nic.phy 	nbFramesWithoutInterferenceDropped 	0
scalar _01_RfidSim.tag[92].mobility 	x 	1422.2222222222
scalar _01_RfidSim.tag[92].mobility 	y 	177.77777777778
scalar _01_RfidSim.tag[92].nic.phy 	nbFramesWithInterference 	5
scalar _01_RfidSim.tag[92].nic.phy 	nbFramesWithoutInterference 	86
scalar _01_RfidSim.tag[92].nic.phy 	nbFramesWithInterferencePartial 	0
scalar _01_RfidSim.tag[92].nic.phy 	nbFramesWithoutInterferencePartial 	0
scalar _01_RfidSim.tag[92].nic.phy 	nbFramesWithInterferenceDropped 	0
scalar _01_RfidSim.tag[92].nic.phy 	nbFramesWithoutInterferenceDropped 	0
scalar _01_RfidSim.tag[93].mobility 	x 	1511.1111111111
scalar _01_RfidSim.tag[93].mobility 	y 	177.77777777778
scalar _01_RfidSim.tag[93].nic.phy 	nbFramesWithInterference 	4
scalar _01_RfidSim.tag[93].nic.phy 	nbFramesWithoutInterference 	39
scalar _01_RfidSim.tag[93].nic.phy 	nbFramesWithInterferencePartial 	0
scalar _01_RfidSim.tag[93].nic.phy 	nbFramesWithoutInterferencePartial 	0
scalar _01_RfidSim.tag[93].nic.phy 	nbFramesWithInterferenceDropped 	0
scalar _01_RfidSim.tag[93].nic.phy 	nbFramesWithoutInterferenceDropped 	0
scalar _01_RfidSim.tag[94].mobility 	x 	1599
scalar _01_RfidSim.tag[94].mobility 	y 	177.77777777778
scalar _01_RfidSim.tag[94].nic.phy 	nbFramesWithInterference 	2
scalar _01_RfidSim.tag[94].nic.phy 	nbFramesWithoutInterference 	27
scalar _01_RfidSim.tag[94].nic.phy 	nbFramesWithInterferencePartial 	0
scalar _01_RfidSim.tag[94].nic.phy 	nbFramesWithoutInterferencePartial 	0
scalar _01_RfidSim.tag[94].nic.phy 	nbFramesWithInterferenceDropped 	0
scalar _01_RfidSim.tag[94].nic.phy 	nbFramesWithoutInterferenceDropped 	0
scalar _01_RfidSim.tag[95].mobility 	x 	0
scalar _01_RfidSim.tag[95].mobility 	y 	222.22222222222
scalar _01_RfidSim.tag[95].nic.phy 	nbFramesWithInterference 	2
scalar _01_RfidSim.tag[95].nic.phy 	nbFramesWithoutInterference 	22
scalar _01_RfidSim.tag[95].nic.phy 	nbFramesWithInterferencePartial 	0
scalar _01_RfidSim.tag[95].nic.phy 	nbFramesWithoutInterferencePartial 	0
scalar _01_RfidSim.tag[95].nic.phy 	nbFramesWithInterferenceDropped 	0
scalar _01_RfidSim.tag[95].nic.phy 	nbFramesWithoutInterferenceDropped 	0
scalar _01_RfidSim.tag[96].mobility 	x 	88.888888888889
scalar _01_RfidSim.tag[96].mobility 	y 	222.22222222222
scalar _01_RfidSim.tag[96].nic.phy 	nbFramesWithInterference 	5
scalar _01_RfidSim.tag[96].nic.phy 	nbFramesWithoutInterference 	39
scalar _01_RfidSim.tag[96].nic.phy 	nbFramesWithInterferencePartial 	0
scalar _01_RfidSim.tag[96].nic.phy 	nbFramesWithoutInterferencePartial 	0
scalar _01_RfidSim.tag[96].nic.phy 	nbFramesWithInterferenceDropped 	0
scalar _01_RfidSim.tag[96].nic.phy 	nbFramesWithoutInterferenceDropped 	0
scalar _01_RfidSim.tag[97].mobility 	x 	177.77777777778
scalar _01_RfidSim.tag[97].mobility 	y 	222.22222222222
scalar _01_RfidSim.tag[97].nic.phy 	nbFramesWithInterference 	6
scalar _01_RfidSim.tag[97].nic.phy 	nbFramesWithoutInterference 	112
scalar _01_RfidSim.tag[97].nic.phy 	nbFramesWithInterferencePartial 	0
scalar _01_RfidSim.tag[97].nic.phy 	nbFramesWithoutInterferencePartial 	0
scalar _01_RfidSim.tag[97].nic.phy 	nbFramesWithInterferenceDropped 	1
scalar _01_RfidSim.tag[97].nic.phy 	nbFramesWithoutInterferenceDropped 	0
scalar _01_RfidSim.tag[98].mobility 	x 	266.66666666667
scalar _01_RfidSim.tag[98].mobility 	y 	222.22222222222
scalar _01_RfidSim.tag[98].nic.phy 	nbFramesWithInterference 	13
scalar _01_RfidSim.tag[98].nic.phy 	nbFramesWithoutInterference 	105
scalar _01_RfidSim.tag[98].nic.phy 	nbFramesWithInterferencePartial 	0
scalar _01_RfidSim.tag[98].nic.phy 	nbFramesWithoutInterferencePartial 	0
scalar _01_RfidSim.tag[98].nic.phy 	nbFramesWithInterferenceDropped 	0
scalar _01_RfidSim.tag[98].nic.phy 	nbFramesWithoutInterferenceDropped 	0
scalar _01_RfidSim.tag[99].mobility 	x 	355.55555555556
scalar _01_RfidSim.tag[99].mobility 	y 	222.22222222222
scalar _01_RfidSim.tag[99].nic.phy 	nbFramesWithInterference 	12
scalar _01_RfidSim.tag[99].nic.phy 	nbFramesWithoutInterference 	33
scalar _01_RfidSim.tag[99].nic.phy 	nbFramesWithInterferencePartial 	0
scalar _01_RfidSim.tag[99].nic.phy 	nbFramesWithoutInterferencePartial 	0
scalar _01_RfidSim.tag[99].nic.phy 	nbFramesWithInterferenceDropped 	0
scalar _01_RfidSim.tag[99].nic.phy 	nbFramesWithoutInterferenceDropped 	0
scalar _01_RfidSim.tag[100].mobility 	x 	444.44444444444
scalar _01_RfidSim.tag[100].mobility 	y 	222.22222222222
scalar _01_RfidSim.tag[100].nic.phy 	nbFramesWithInterference 	17
scalar _01_RfidSim.tag[100].nic.phy 	nbFramesWithoutInterference 	7
scalar _01_RfidSim.tag[100].nic.phy 	nbFramesWithInterferencePartial 	0
scalar _01_RfidSim.tag[100].nic.phy 	nbFramesWithoutInterferencePartial 	0
scalar _01_RfidSim.tag[100].nic.phy 	nbFramesWithInterferenceDropped 	1
scalar _01_RfidSim.tag[100].nic.phy 	nbFramesWithoutInterferenceDropped 	0
scalar _01_RfidSim.tag[101].mobility 	x 	533.33333333333
scalar _01_RfidSim.tag[101].mobility 	y 	222.22222222222
scalar _01_RfidSim.tag[101].nic.phy 	nbFramesWithInterference 	18
scalar _01_RfidSim.tag[101].nic.phy 	nbFramesWithoutInterference 	8
scalar _01_RfidSim.tag[101].nic.phy 	nbFramesWithInterferencePartial 	0
scalar _01_RfidSim.tag[101].nic.phy 	nbFramesWithoutInterferencePartial 	0
scalar _01_RfidSim.tag[101].nic.phy 	nbFramesWithInterferenceDropped 	0
scalar _01_RfidSim.tag[101].nic.phy 	nbFramesWithoutInterferenceDropped 	0
scalar _01_RfidSim.tag[102].mobility 	x 	622.22222222222
scalar _01_RfidSim.tag[102].mobility 	y 	222.22222222222
scalar _01_RfidSim.tag[102].nic.phy 	nbFramesWithInterference 	20
scalar _01_RfidSim.tag[102].nic.phy 	nbFramesWithoutInterference 	24
scalar _01_RfidSim.tag[102].nic.phy 	nbFramesWithInterferencePartial 	0
scalar _01_RfidSim.tag[102].nic.phy 	nbFramesWithoutInterferencePartial 	0
scalar _01_RfidSim.tag[102].nic.phy 	nbFramesWithInterferenceDropped 	2
scalar _01_RfidSim.tag[102].nic.phy 	nbFramesWithoutInterferenceDropped 	0
scalar _01_RfidSim.tag[103].mobility 	x 	711.11111111111
scalar _01_RfidSim.tag[103].mobility 	y 	222.22222222222
scalar _01_RfidSim.tag[103].nic.phy 	nbFramesWithInterference 	11
scalar _01_RfidSim.tag[103].nic.phy 	nbFramesWithoutInterference 	49
scalar _01_RfidSim.tag[103].nic.phy 	nbFramesWithInterferencePartial 	0
scalar _01_RfidSim.tag[103].nic.phy 	nbFramesWithoutInterferencePartial 	0
scalar _01_RfidSim.tag[103].nic.phy 	nbFramesWithInterferenceDropped 	3
scalar _01_RfidSim.tag[103].nic.phy 	nbFramesWithoutInterferenceDropped 	0
scalar _01_RfidSim.tag[104].mobility 	x 	800
scalar _01_RfidSim.tag[104].mobility 	y 	222.22222222222
scalar _01_RfidSim.tag[104].nic.phy 	nbFramesWithInterference 	13
scalar _01_RfidSim.tag[104].nic.phy 	nbFramesWithoutInterference 	104
scalar _01_RfidSim.tag[104].nic.phy 	nbFramesWithInterferencePartial 	0
scalar _01_RfidSim.tag[104].nic.phy 	nbFramesWithoutInterferencePartial 	0
scalar _01_RfidSim.tag[104].nic.phy 	nbFramesWithInterferenceDropped 	1
scalar _01_RfidSim.tag[104].nic.phy 	nbFramesWithoutInterferenceDropped 	0
scalar _01_RfidSim.tag[105].mobility 	x 	888.88888888889
scalar _01_RfidSim.tag[105].mobility 	y 	222.22222222222
scalar _01_RfidSim.tag[105].nic.phy 	nbFramesWithInterference 	15
scalar _01_RfidSim.tag[105].nic.phy 	nbFramesWithoutInterference 	46
scalar _01_RfidSim.tag[105].nic.phy 	nbFramesWithInterferencePartial 	0
scalar _01_RfidSim.tag[105].nic.phy 	nbFramesWithoutInterferencePartial 	0
scalar _01_RfidSim.tag[105].nic.phy 	nbFramesWithInterferenceDropped 	2
scalar _01_RfidSim.tag[105].nic.phy 	nbFramesWithoutInterferenceDropped 	0
scalar _01_RfidSim.tag[106].mobility 	x 	977.77777777778
scalar _01_RfidSim.tag[106].mobility 	y 	222.22222222222
scalar _01_RfidSim.tag[106].nic.phy 	nbFramesWithInterference 	24
scalar _01_RfidSim.tag[106].nic.phy 	nbFramesWithoutInterference 	20
scalar _01_RfidSim.tag[106].nic.phy 	nbFramesWithInterferencePartial 	0
scalar _01_RfidSim.tag[106].nic.phy 	nbFramesWithoutInterferencePartial 	0
scalar _01_RfidSim.tag[106].nic.phy 	nbFramesWithInterferenceDropped 	2
scalar _01_RfidSim.tag[106].nic.phy 	nbFramesWithoutInterferenceDropped 	0
scalar _01_RfidSim.tag[107].mobility 	x 	1066.6666666667
scalar _01_RfidSim.tag[107].mobility 	y 	222.22222222222
scalar _01_RfidSim.tag[107].nic.phy 	nbFramesWithInterference 	16
scalar _01_RfidSim.tag[107].nic.phy 	nbFramesWithoutInterference 	11
scalar _01_RfidSim.tag[107].nic.phy 	nbFramesWithInterferencePartial 	0
scalar _01_RfidSim.tag[107].nic.phy 	nbFramesWithoutInterferencePartial 	0
scalar _01_RfidSim.tag[107].nic.phy 	nbFramesWithInterferenceDropped 	1
scalar _01_RfidSim.tag[107].nic.phy 	nbFramesWithoutInterferenceDropped 	0
scalar _01_RfidSim.tag[108].mobility 	x 	1155.5555555556
scalar _01_RfidSim.tag[108].mobility 	y 	222.22222222222
scalar _01_RfidSim.tag[108].nic.phy 	nbFramesWithInterference 	12
scalar _01_RfidSim.tag[108].nic.phy 	nbFramesWithoutInterference 	14
scalar _01_RfidSim.tag[108].nic.phy 	nbFramesWithInterferencePartial 	0
scalar _01_RfidSim.tag[108].nic.phy 	nbFramesWithoutInterferencePartial 	0
scalar _01_RfidSim.tag[108].nic.phy 	nbFramesWithInterferenceDropped 	0
scalar _01_RfidSim.tag[108].nic.phy 	nbFramesWithoutInterferenceDropped 	0
scalar _01_RfidSim.tag[109].mobility 	x 	1244.4444444444
scalar _01_RfidSim.tag[109].mobility 	y 	222.22222222222
scalar _01_RfidSim.tag[109].nic.phy 	nbFramesWithInterference 	14
scalar _01_RfidSim.tag[109].nic.phy 	nbFramesWithoutInterference 	33
scalar _01_RfidSim.tag[109].nic.phy 	nbFramesWithInterferencePartial 	0
scalar _01_RfidSim.tag[109].nic.phy 	nbFramesWithoutInterferencePartial 	0
scalar _01_RfidSim.tag[109].nic.phy 	nbFramesWithInterferenceDropped 	0
scalar _01_RfidSim.tag[109].nic.phy 	nbFramesWithoutInterferenceDropped 	0
scalar _01_RfidSim.tag[110].mobility 	x 	1333.3333333333
scalar _01_RfidSim.tag[110].mobility 	y 	222.22222222222
scalar _01_RfidSim.tag[110].nic.phy 	nbFramesWithInterference 	14
scalar _01_RfidSim.tag[110].nic.phy 	nbFramesWithoutInterference 	103
scalar _01_RfidSim.tag[110].nic.phy 	nbFramesWithInterferencePartial 	0
scalar _01_RfidSim.tag[110].nic.phy 	nbFramesWithoutInterferencePartial 	0
scalar _01_RfidSim.tag[110].nic.phy 	nbFramesWithInterferenceDropped 	0
scalar _01_RfidSim.tag[110].nic.phy 	nbFramesWithoutInterferenceDropped 	0
scalar _01_RfidSim.tag[111].mobility 	x 	1422.2222222222
scalar _01_RfidSim.tag[111].mobility 	y 	222.22222222222
scalar _01_RfidSim.tag[111].nic.phy 	nbFramesWithInterference 	10
scalar _01_RfidSim.tag[111].nic.phy 	nbFramesWithoutInterference 	107
scalar _01_RfidSim.tag[111].nic.phy 	nbFramesWithInterferencePartial 	0
scalar _01_RfidSim.tag[111].nic.phy 	nbFramesWithoutInterferencePartial 	0
scalar _01_RfidSim.tag[111].nic.phy 	nbFramesWithInterferenceDropped 	0
scalar _01_RfidSim.tag[111].nic.phy 	nbFramesWithoutInterferenceDropped 	0
scalar _01_RfidSim.tag[112].mobility 	x 	1511.1111111111
scalar _01_RfidSim.tag[112].mobility 	y 	222.22222222222
scalar _01_RfidSim.tag[112].nic.phy 	nbFramesWithInterference 	7
scalar _01_RfidSim.tag[112].nic.phy 	nbFramesWithoutInterference 	36
scalar _01_RfidSim.tag[112].nic.phy 	nbFramesWithInterferencePartial 	0
scalar _01_RfidSim.tag[112].nic.phy 	nbFramesWithoutInterferencePartial 	0
scalar _01_RfidSim.tag[112].nic.phy 	nbFramesWithInterferenceDropped 	0
scalar _01_RfidSim.tag[112].nic.phy 	nbFramesWithoutInterferenceDropped 	0
scalar _01_RfidSim.tag[113].mobility 	x 	1599
scalar _01_RfidSim.tag[113].mobility 	y 	222.22222222222
scalar _01_RfidSim.tag[113].nic.phy 	nbFramesWithInterference 	3
scalar _01_RfidSim.tag[113].nic.phy 	nbFramesWithoutInterference 	26
scalar _01_RfidSim.tag[113].nic.phy 	nbFramesWithInterferencePartial 	0
scalar _01_RfidSim.tag[113].nic.phy 	nbFramesWithoutInterferencePartial 	0
scalar _01_RfidSim.tag[113].nic.phy 	nbFramesWithInterferenceDropped 	0
scalar _01_RfidSim.tag[113].nic.phy 	nbFramesWithoutInterferenceDropped 	0
scalar _01_RfidSim.tag[114].mobility 	x 	0
scalar _01_RfidSim.tag[114].mobility 	y 	266.66666666667
scalar _01_RfidSim.tag[114].nic.phy 	nbFramesWithInterference 	3
scalar _01_RfidSim.tag[114].nic.phy 	nbFramesWithoutInterference 	21
scalar _01_RfidSim.tag[114].nic.phy 	nbFramesWithInterferencePartial 	0
scalar _01_RfidSim.tag[114].nic.phy 	nbFramesWithoutInterferencePartial 	0
scalar _01_RfidSim.tag[114].nic.phy 	nbFramesWithInterferenceDropped 	0
scalar _01_RfidSim.tag[114].nic.phy 	nbFramesWithoutInterferenceDropped 	0
scalar _01_RfidSim.tag[115].mobility 	x 	88.888888888889
scalar _01_RfidSim.tag[115].mobility 	y 	266.66666666667
scalar _01_RfidSim.tag[115].nic.phy 	nbFramesWithInterference 	7
scalar _01_RfidSim.tag[115].nic.phy 	nbFramesWithoutInterference 	36
scalar _01_RfidSim.tag[115].nic.phy 	nbFramesWithInterferencePartial 	0
scalar _01_RfidSim.tag[115].nic.phy 	nbFramesWithoutInterferencePartial 	0
scalar _01_RfidSim.tag[115].nic.phy 	nbFramesWithInterferenceDropped 	0
scalar _01_RfidSim.tag[115].nic.phy 	nbFramesWithoutInterferenceDropped 	0
scalar _01_RfidSim.tag[116].mobility 	x 	177.77777777778
scalar _01_RfidSim.tag[116].mobility 	y 	266.66666666667
scalar _01_RfidSim.tag[116].nic.phy 	nbFramesWithInterference 	6
scalar _01_RfidSim.tag[116].nic.phy 	nbFramesWithoutInterference 	110
scalar _01_RfidSim.tag[116].nic.phy 	nbFramesWithInterferencePartial 	0
scalar _01_RfidSim.tag[116].nic.phy 	nbFramesWithoutInterferencePartial 	0
scalar _01_RfidSim.tag[116].nic.phy 	nbFramesWithInterferenceDropped 	2
scalar _01_RfidSim.tag[116].nic.phy 	nbFramesWithoutInterferenceDropped 	0
scalar _01_RfidSim.tag[117].mobility 	x 	266.66666666667
scalar _01_RfidSim.tag[117].mobility 	y 	266.66666666667
scalar _01_RfidSim.tag[117].nic.phy 	nbFramesWithInterference 	9
scalar _01_RfidSim.tag[117].nic.phy 	nbFramesWithoutInterference 	110
scalar _01_RfidSim.tag[117].nic.phy 	nbFramesWithInterferencePartial 	0
scalar _01_RfidSim.tag[117].nic.phy 	nbFramesWithoutInterferencePartial 	0
scalar _01_RfidSim.tag[117].nic.phy 	nbFramesWithInterferenceDropped 	1
scalar _01_RfidSim.tag[117].nic.phy 	nbFramesWithoutInterferenceDropped 	0
scalar _01_RfidSim.tag[118].mobility 	x 	355.55555555556
scalar _01_RfidSim.tag[118].mobility 	y 	266.66666666667
scalar _01_RfidSim.tag[118].nic.phy 	nbFramesWithInterference 	18
scalar _01_RfidSim.tag[118].nic.phy 	nbFramesWithoutInterference 	87
scalar _01_RfidSim.tag[118].nic.phy 	nbFramesWithInterferencePartial 	0
scalar _01_RfidSim.tag[118].nic.phy 	nbFramesWithoutInterferencePartial 	0
scalar _01_RfidSim.tag[118].nic.phy 	nbFramesWithInterferenceDropped 	1
scalar _01_RfidSim.tag[118].nic.phy 	nbFramesWithoutInterferenceDropped 	0
scalar _01_RfidSim.tag[119].mobility 	x 	444.44444444444
scalar _01_RfidSim.tag[119].mobility 	y 	266.66666666667
scalar _01_RfidSim.tag[119].nic.phy 	nbFramesWithInterference 	15
scalar _01_RfidSim.tag[119].nic.phy 	nbFramesWithoutInterference 	13
scalar _01_RfidSim.tag[119].nic.phy 	nbFramesWithInterferencePartial 	0
scalar _01_RfidSim.tag[119].nic.phy 	nbFramesWithoutInterferencePartial 	0
scalar _01_RfidSim.tag[119].nic.phy 	nbFramesWithInterferenceDropped 	1
scalar _01_RfidSim.tag[119].nic.phy 	nbFramesWithoutInterferenceDropped 	0
scalar _01_RfidSim.tag[120].mobility 	x 	533.33333333333
scalar _01_RfidSim.tag[120].mobility 	y 	266.66666666667
scalar _01_RfidSim.tag[120].nic.phy 	nbFramesWithInterference 	14
scalar _01_RfidSim.tag[120].nic.phy 	nbFramesWithoutInterference 	13
scalar _01_RfidSim.tag[120].nic.phy 	nbFramesWithInterferencePartial 	0
scalar _01_RfidSim.tag[120].nic.phy 	nbFramesWithoutInterferencePartial 	0
scalar _01_RfidSim.tag[120].nic.phy 	nbFramesWithInterferenceDropped 	0
scalar _01_RfidSim.tag[120].nic.phy 	nbFramesWithoutInterferenceDropped 	0
scalar _01_RfidSim.tag[121].mobility 	x 	622.22222222222
scalar _01_RfidSim.tag[121].mobility 	y 	266.66666666667
scalar _01_RfidSim.tag[121].nic.phy 	nbFramesWithInterference 	14
scalar _01_RfidSim.tag[121].nic.phy 	nbFramesWithoutInterference 	27
scalar _01_RfidSim.tag[121].nic.phy 	nbFramesWithInterferencePartial 	0
scalar _01_RfidSim.tag[121].nic.phy 	nbFramesWithoutInterferencePartial 	0
scalar _01_RfidSim.tag[121].nic.phy 	nbFramesWithInterferenceDropped 	2
scalar _01_RfidSim.tag[121].nic.phy 	nbFramesWithoutInterferenceDropped 	0
scalar _01_RfidSim.tag[122].mobility 	x 	711.11111111111
scalar _01_RfidSim.tag[122].mobility 	y 	266.66666666667
scalar _01_RfidSim.tag[122].nic.phy 	nbFramesWithInterference 	17
scalar _01_RfidSim.tag[122].nic.phy 	nbFramesWithoutInterference 	98
scalar _01_RfidSim.tag[122].nic.phy 	nbFramesWithInterferencePartial 	0
scalar _01_RfidSim.tag[122].nic.phy 	nbFramesWithoutInterferencePartial 	0
scalar _01_RfidSim.tag[122].nic.phy 	nbFramesWithInterferenceDropped 	0
scalar _01_RfidSim.tag[122].nic.phy 	nbFramesWithoutInterferenceDropped 	0
scalar _01_RfidSim.tag[123].mobility 	x 	800
scalar _01_RfidSim.tag[123].mobility 	y 	266.66666666667
scalar _01_RfidSim.tag[123].nic.phy 	nbFramesWithInterference 	12
scalar _01_RfidSim.tag[123].nic.phy 	nbFramesWithoutInterference 	112
scalar _01_RfidSim.tag[123].nic.phy 	nbFramesWithInterferencePartial 	0
scalar _01_RfidSim.tag[123].nic.phy 	nbFramesWithoutInterferencePartial 	0
scalar _01_RfidSim.tag[123].nic.phy 	nbFramesWithInterferenceDropped 	0
scalar _01_RfidSim.tag[123].nic.phy 	nbFramesWithoutInterferenceDropped 	0
scalar _01_RfidSim.tag[124].mobility 	x 	888.88888888889
scalar _01_RfidSim.tag[124].mobility 	y 	266.66666666667
scalar _01_RfidSim.tag[124].nic.phy 	nbFramesWithInterference 	14
scalar _01_RfidSim.tag[124].nic.phy 	nbFramesWithoutInterference 	103
scalar _01_RfidSim.tag[124].nic.phy 	nbFramesWithInterferencePartial 	0
scalar _01_RfidSim.tag[124].nic.phy 	nbFramesWithoutInterferencePartial 	0
scalar _01_RfidSim.tag[124].nic.phy 	nbFramesWithInterferenceDropped 	0
scalar _01_RfidSim.tag[124].nic.phy 	nbFramesWithoutInterferenceDropped 	0
scalar _01_RfidSim.tag[125].mobility 	x 	977.77777777778
scalar _01_RfidSim.tag[125].mobility 	y 	266.66666666667
scalar _01_RfidSim.tag[125].nic.phy 	nbFramesWithInterference 	23
scalar _01_RfidSim.tag[125].nic.phy 	nbFramesWithoutInterference 	24
scalar _01_RfidSim.tag[125].nic.phy 	nbFramesWithInterferencePartial 	0
scalar _01_RfidSim.tag[125].nic.phy 	nbFramesWithoutInterferencePartial 	0
scalar _01_RfidSim.tag[125].nic.phy 	nbFramesWithInterferenceDropped 	1
scalar _01_RfidSim.tag[125].nic.phy 	nbFramesWithoutInterferenceDropped 	0
scalar _01_RfidSim.tag[126].mobility 	x 	1066.6666666667
scalar _01_RfidSim.tag[126].mobility 	y 	266.66666666667
scalar _01_RfidSim.tag[126].nic.phy 	nbFramesWithInterference 	14
scalar _01_RfidSim.tag[126].nic.phy 	nbFramesWithoutInterference 	14
scalar _01_RfidSim.tag[126].nic.phy 	nbFramesWithInterferencePartial 	0
scalar _01_RfidSim.tag[126].nic.phy 	nbFramesWithoutInterferencePartial 	0
scalar _01_RfidSim.tag[126].nic.phy 	nbFramesWithInterferenceDropped 	2
scalar _01_RfidSim.tag[126].nic.phy 	nbFramesWithoutInterferenceDropped 	0
scalar _01_RfidSim.tag[127].mobility 	x 	1155.5555555556
scalar _01_RfidSim.tag[127].mobility 	y 	266.66666666667
scalar _01_RfidSim.tag[127].nic.phy 	nbFramesWithInterference 	11
scalar _01_RfidSim.tag[127].nic.phy 	nbFramesWithoutInterference 	21
scalar _01_RfidSim.tag[127].nic.phy 	nbFramesWithInterferencePartial 	0
scalar _01_RfidSim.tag[127].nic.phy 	nbFramesWithoutInterferencePartial 	0
scalar _01_RfidSim.tag[127].nic.phy 	nbFramesWithInterferenceDropped 	0
scalar _01_RfidSim.tag[127].nic.phy 	nbFramesWithoutInterferenceDropped 	0
scalar _01_RfidSim.tag[128].mobility 	x 	1244.4444444444
scalar _01_RfidSim.tag[128].mobility 	y 	266.66666666667
scalar _01_RfidSim.tag[128].nic.phy 	nbFramesWithInterference 	19
scalar _01_RfidSim.tag[128].nic.phy 	nbFramesWithoutInterference 	86
scalar _01_RfidSim.tag[128].nic.phy 	nbFramesWithInterferencePartial 	0
scalar _01_RfidSim.tag[128].nic.phy 	nbFramesWithoutInterferencePartial 	0
scalar _01_RfidSim.tag[128].nic.phy 	nbFramesWithInterferenceDropped 	0
scalar _01_RfidSim.tag[128].nic.phy 	nbFramesWithoutInterferenceDropped 	0
scalar _01_RfidSim.tag[129].mobility 	x 	1333.3333333333
scalar _01_RfidSim.tag[129].mobility 	y 	266.66666666667
scalar _01_RfidSim.tag[129].nic.phy 	nbFramesWithInterference 	14
scalar _01_RfidSim.tag[129].nic.phy 	nbFramesWithoutInterference 	104
scalar _01_RfidSim.tag[129].nic.phy 	nbFramesWithInterferencePartial 	0
scalar _01_RfidSim.tag[129].nic.phy 	nbFramesWithoutInterferencePartial 	0
scalar _01_RfidSim.tag[129].nic.phy 	nbFramesWithInterferenceDropped 	0
scalar _01_RfidSim.tag[129].nic.phy 	nbFramesWithoutInterferenceDropped 	0
scalar _01_RfidSim.tag[130].mobility 	x 	1422.2222222222
scalar _01_RfidSim.tag[130].mobility 	y 	266.66666666667
scalar _01_RfidSim.tag[130].nic.phy 	nbFramesWithInterference 	7
scalar _01_RfidSim.tag[130].nic.phy 	nbFramesWithoutInterference 	108
scalar _01_RfidSim.tag[130].nic.phy 	nbFramesWithInterferencePartial 	0
scalar _01_RfidSim.tag[130].nic.phy 	nbFramesWithoutInterferencePartial 	0
scalar _01_RfidSim.tag[130].nic.phy 	nbFramesWithInterferenceDropped 	0
scalar _01_RfidSim.tag[130].nic.phy 	nbFramesWithoutInterferenceDropped 	0
scalar _01_RfidSim.tag[131].mobility 	x 	1511.1111111111
scalar _01_RfidSim.tag[131].mobility 	y 	266.66666666667
scalar _01_RfidSim.tag[131].nic.phy 	nbFramesWithInterference 	7
scalar _01_RfidSim.tag[131].nic.phy 	nbFramesWithoutInterference 	38
scalar _01_RfidSim.tag[131].nic.phy 	nbFramesWithInterferencePartial 	0
scalar _01_RfidSim.tag[131].nic.phy 	nbFramesWithoutInterferencePartial 	0
scalar _01_RfidSim.tag[131].nic.phy 	nbFramesWithInterferenceDropped 	0
scalar _01_RfidSim.tag[131].nic.phy 	nbFramesWithoutInterferenceDropped 	0
scalar _01_RfidSim.tag[132].mobility 	x 	1599
scalar _01_RfidSim.tag[132].mobility 	y 	266.66666666667
scalar _01_RfidSim.tag[132].nic.phy 	nbFramesWithInterference 	3
scalar _01_RfidSim.tag[132].nic.phy 	nbFramesWithoutInterference 	28
scalar _01_RfidSim.tag[132].nic.phy 	nbFramesWithInterferencePartial 	0
scalar _01_RfidSim.tag[132].nic.phy 	nbFramesWithoutInterferencePartial 	0
scalar _01_RfidSim.tag[132].nic.phy 	nbFramesWithInterferenceDropped 	0
scalar _01_RfidSim.tag[132].nic.phy 	nbFramesWithoutInterferenceDropped 	0
scalar _01_RfidSim.tag[133].mobility 	x 	0
scalar _01_RfidSim.tag[133].mobility 	y 	311.11111111111
scalar _01_RfidSim.tag[133].nic.phy 	nbFramesWithInterference 	3
scalar _01_RfidSim.tag[133].nic.phy 	nbFramesWithoutInterference 	21
scalar _01_RfidSim.tag[133].nic.phy 	nbFramesWithInterferencePartial 	0
scalar _01_RfidSim.tag[133].nic.phy 	nbFramesWithoutInterferencePartial 	0
scalar _01_RfidSim.tag[133].nic.phy 	nbFramesWithInterferenceDropped 	0
scalar _01_RfidSim.tag[133].nic.phy 	nbFramesWithoutInterferenceDropped 	0
scalar _01_RfidSim.tag[134].mobility 	x 	88.888888888889
scalar _01_RfidSim.tag[134].mobility 	y 	311.11111111111
scalar _01_RfidSim.tag[134].nic.phy 	nbFramesWithInterference 	4
scalar _01_RfidSim.tag[134].nic.phy 	nbFramesWithoutInterference 	99
scalar _01_RfidSim.tag[134].nic.phy 	nbFramesWithInterferencePartial 	0
scalar _01_RfidSim.tag[134].nic.phy 	nbFramesWithoutInterferencePartial 	0
scalar _01_RfidSim.tag[134].nic.phy 	nbFramesWithInterferenceDropped 	0
scalar _01_RfidSim.tag[134].nic.phy 	nbFramesWithoutInterferenceDropped 	0
scalar _01_RfidSim.tag[135].mobility 	x 	177.77777777778
scalar _01_RfidSim.tag[135].mobility 	y 	311.11111111111
scalar _01_RfidSim.tag[135].nic.phy 	nbFramesWithInterference 	5
scalar _01_RfidSim.tag[135].nic.phy 	nbFramesWithoutInterference 	113
scalar _01_RfidSim.tag[135].nic.phy 	nbFramesWithInterferencePartial 	0
scalar _01_RfidSim.tag[135].nic.phy 	nbFramesWithoutInterferencePartial 	0
scalar _01_RfidSim.tag[135].nic.phy 	nbFramesWithInterferenceDropped 	0
scalar _01_RfidSim.tag[135].nic.phy 	nbFramesWithoutInterferenceDropped 	0
scalar _01_RfidSim.tag[136].mobility 	x 	266.66666666667
scalar _01_RfidSim.tag[136].mobility 	y 	311.11111111111
scalar _01_RfidSim.tag[136].nic.phy 	nbFramesWithInterference 	7
scalar _01_RfidSim.tag[136].nic.phy 	nbFramesWithoutInterference 	114
scalar _01_RfidSim.tag[136].nic.phy 	nbFramesWithInterferencePartial 	0
scalar _01_RfidSim.tag[136].nic.phy 	nbFramesWithoutInterferencePartial 	0
scalar _01_RfidSim.tag[136].nic.phy 	nbFramesWithInterferenceDropped 	1
scalar _01_RfidSim.tag[136].nic.phy 	nbFramesWithoutInterferenceDropped 	0
scalar _01_RfidSim.tag[137].mobility 	x 	355.55555555556
scalar _01_RfidSim.tag[137].mobility 	y 	311.11111111111
scalar _01_RfidSim.tag[137].nic.phy 	nbFramesWithInterference 	18
scalar _01_RfidSim.tag[137].nic.phy 	nbFramesWithoutInterference 	88
scalar _01_RfidSim.tag[137].nic.phy 	nbFramesWithInterferencePartial 	0
scalar _01_RfidSim.tag[137].nic.phy 	nbFramesWithoutInterferencePartial 	0
scalar _01_RfidSim.tag[137].nic.phy 	nbFramesWithInterferenceDropped 	0
scalar _01_RfidSim.tag[137].nic.phy 	nbFramesWithoutInterferenceDropped 	0
scalar _01_RfidSim.tag[138].mobility 	x 	444.44444444444
scalar _01_RfidSim.tag[138].mobility 	y 	311.11111111111
[...]
scalar _01_RfidSim.tag[324].nic.phy 	nbFramesWithInterference 	2
scalar _01_RfidSim.tag[324].nic.phy 	nbFramesWithoutInterference 	61
scalar _01_RfidSim.tag[324].nic.phy 	nbFramesWithInterferencePartial 	0
scalar _01_RfidSim.tag[324].nic.phy 	nbFramesWithoutInterferencePartial 	0
scalar _01_RfidSim.tag[324].nic.phy 	nbFramesWithInterferenceDropped 	0
scalar _01_RfidSim.tag[324].nic.phy 	nbFramesWithoutInterferenceDropped 	0
scalar _01_RfidSim.tag[325].mobility 	x 	177.77777777778
scalar _01_RfidSim.tag[325].mobility 	y 	755.55555555556
scalar _01_RfidSim.tag[325].nic.phy 	nbFramesWithInterference 	2
scalar _01_RfidSim.tag[325].nic.phy 	nbFramesWithoutInterference 	74
scalar _01_RfidSim.tag[325].nic.phy 	nbFramesWithInterferencePartial 	0
scalar _01_RfidSim.tag[325].nic.phy 	nbFramesWithoutInterferencePartial 	0
scalar _01_RfidSim.tag[325].nic.phy 	nbFramesWithInterferenceDropped 	0
scalar _01_RfidSim.tag[325].nic.phy 	nbFramesWithoutInterferenceDropped 	0
scalar _01_RfidSim.tag[326].mobility 	x 	266.66666666667
scalar _01_RfidSim.tag[326].mobility 	y 	755.55555555556
scalar _01_RfidSim.tag[326].nic.phy 	nbFramesWithInterference 	1
scalar _01_RfidSim.tag[326].nic.phy 	nbFramesWithoutInterference 	73
scalar _01_RfidSim.tag[326].nic.phy 	nbFramesWithInterferencePartial 	0
scalar _01_RfidSim.tag[326].nic.phy 	nbFramesWithoutInterferencePartial 	0
scalar _01_RfidSim.tag[326].nic.phy 	nbFramesWithInterferenceDropped 	2
scalar _01_RfidSim.tag[326].nic.phy 	nbFramesWithoutInterferenceDropped 	0
scalar _01_RfidSim.tag[327].mobility 	x 	355.55555555556
scalar _01_RfidSim.tag[327].mobility 	y 	755.55555555556
scalar _01_RfidSim.tag[327].nic.phy 	nbFramesWithInterference 	3
scalar _01_RfidSim.tag[327].nic.phy 	nbFramesWithoutInterference 	61
scalar _01_RfidSim.tag[327].nic.phy 	nbFramesWithInterferencePartial 	0
scalar _01_RfidSim.tag[327].nic.phy 	nbFramesWithoutInterferencePartial 	0
scalar _01_RfidSim.tag[327].nic.phy 	nbFramesWithInterferenceDropped 	0
scalar _01_RfidSim.tag[327].nic.phy 	nbFramesWithoutInterferenceDropped 	0
scalar _01_RfidSim.tag[328].mobility 	x 	444.44444444444
scalar _01_RfidSim.tag[328].mobility 	y 	755.55555555556
scalar _01_RfidSim.tag[328].nic.phy 	nbFramesWithInterference 	12
scalar _01_RfidSim.tag[328].nic.phy 	nbFramesWithoutInterference 	14
scalar _01_RfidSim.tag[328].nic.phy 	nbFramesWithInterferencePartial 	0
scalar _01_RfidSim.tag[328].nic.phy 	nbFramesWithoutInterferencePartial 	0
scalar _01_RfidSim.tag[328].nic.phy 	nbFramesWithInterferenceDropped 	0
scalar _01_RfidSim.tag[328].nic.phy 	nbFramesWithoutInterferenceDropped 	0
scalar _01_RfidSim.tag[329].mobility 	x 	533.33333333333
scalar _01_RfidSim.tag[329].mobility 	y 	755.55555555556
scalar _01_RfidSim.tag[329].nic.phy 	nbFramesWithInterference 	12
scalar _01_RfidSim.tag[329].nic.phy 	nbFramesWithoutInterference 	15
scalar _01_RfidSim.tag[329].nic.phy 	nbFramesWithInterferencePartial 	0
scalar _01_RfidSim.tag[329].nic.phy 	nbFramesWithoutInterferencePartial 	0
scalar _01_RfidSim.tag[329].nic.phy 	nbFramesWithInterferenceDropped 	0
scalar _01_RfidSim.tag[329].nic.phy 	nbFramesWithoutInterferenceDropped 	0
scalar _01_RfidSim.tag[330].mobility 	x 	622.22222222222
scalar _01_RfidSim.tag[330].mobility 	y 	755.55555555556
scalar _01_RfidSim.tag[330].nic.phy 	nbFramesWithInterference 	20
scalar _01_RfidSim.tag[330].nic.phy 	nbFramesWithoutInterference 	53
scalar _01_RfidSim.tag[330].nic.phy 	nbFramesWithInterferencePartial 	0
scalar _01_RfidSim.tag[330].nic.phy 	nbFramesWithoutInterferencePartial 	0
scalar _01_RfidSim.tag[330].nic.phy 	nbFramesWithInterferenceDropped 	0
scalar _01_RfidSim.tag[330].nic.phy 	nbFramesWithoutInterferenceDropped 	0
scalar _01_RfidSim.tag[331].mobility 	x 	711.11111111111
scalar _01_RfidSim.tag[331].mobility 	y 	755.55555555556
scalar _01_RfidSim.tag[331].nic.phy 	nbFramesWithInterference 	13
scalar _01_RfidSim.tag[331].nic.phy 	nbFramesWithoutInterference 	70
scalar _01_RfidSim.tag[331].nic.phy 	nbFramesWithInterferencePartial 	0
scalar _01_RfidSim.tag[331].nic.phy 	nbFramesWithoutInterferencePartial 	0
scalar _01_RfidSim.tag[331].nic.phy 	nbFramesWithInterferenceDropped 	1
scalar _01_RfidSim.tag[331].nic.phy 	nbFramesWithoutInterferenceDropped 	0
scalar _01_RfidSim.tag[332].mobility 	x 	800
scalar _01_RfidSim.tag[332].mobility 	y 	755.55555555556
scalar _01_RfidSim.tag[332].nic.phy 	nbFramesWithInterference 	8
scalar _01_RfidSim.tag[332].nic.phy 	nbFramesWithoutInterference 	84
scalar _01_RfidSim.tag[332].nic.phy 	nbFramesWithInterferencePartial 	0
scalar _01_RfidSim.tag[332].nic.phy 	nbFramesWithoutInterferencePartial 	0
scalar _01_RfidSim.tag[332].nic.phy 	nbFramesWithInterferenceDropped 	3
scalar _01_RfidSim.tag[332].nic.phy 	nbFramesWithoutInterferenceDropped 	0
scalar _01_RfidSim.tag[333].mobility 	x 	888.88888888889
scalar _01_RfidSim.tag[333].mobility 	y 	755.55555555556
scalar _01_RfidSim.tag[333].nic.phy 	nbFramesWithInterference 	7
scalar _01_RfidSim.tag[333].nic.phy 	nbFramesWithoutInterference 	75
scalar _01_RfidSim.tag[333].nic.phy 	nbFramesWithInterferencePartial 	0
scalar _01_RfidSim.tag[333].nic.phy 	nbFramesWithoutInterferencePartial 	0
scalar _01_RfidSim.tag[333].nic.phy 	nbFramesWithInterferenceDropped 	2
scalar _01_RfidSim.tag[333].nic.phy 	nbFramesWithoutInterferenceDropped 	0
scalar _01_RfidSim.tag[334].mobility 	x 	977.77777777778
scalar _01_RfidSim.tag[334].mobility 	y 	755.55555555556
scalar _01_RfidSim.tag[334].nic.phy 	nbFramesWithInterference 	20
scalar _01_RfidSim.tag[334].nic.phy 	nbFramesWithoutInterference 	50
scalar _01_RfidSim.tag[334].nic.phy 	nbFramesWithInterferencePartial 	0
scalar _01_RfidSim.tag[334].nic.phy 	nbFramesWithoutInterferencePartial 	0
scalar _01_RfidSim.tag[334].nic.phy 	nbFramesWithInterferenceDropped 	2
scalar _01_RfidSim.tag[334].nic.phy 	nbFramesWithoutInterferenceDropped 	0
scalar _01_RfidSim.tag[335].mobility 	x 	1066.6666666667
scalar _01_RfidSim.tag[335].mobility 	y 	755.55555555556
scalar _01_RfidSim.tag[335].nic.phy 	nbFramesWithInterference 	10
scalar _01_RfidSim.tag[335].nic.phy 	nbFramesWithoutInterference 	19
scalar _01_RfidSim.tag[335].nic.phy 	nbFramesWithInterferencePartial 	0
scalar _01_RfidSim.tag[335].nic.phy 	nbFramesWithoutInterferencePartial 	0
scalar _01_RfidSim.tag[335].nic.phy 	nbFramesWithInterferenceDropped 	1
scalar _01_RfidSim.tag[335].nic.phy 	nbFramesWithoutInterferenceDropped 	0
scalar _01_RfidSim.tag[336].mobility 	x 	1155.5555555556
scalar _01_RfidSim.tag[336].mobility 	y 	755.55555555556
scalar _01_RfidSim.tag[336].nic.phy 	nbFramesWithInterference 	16
scalar _01_RfidSim.tag[336].nic.phy 	nbFramesWithoutInterference 	13
scalar _01_RfidSim.tag[336].nic.phy 	nbFramesWithInterferencePartial 	0
scalar _01_RfidSim.tag[336].nic.phy 	nbFramesWithoutInterferencePartial 	0
scalar _01_RfidSim.tag[336].nic.phy 	nbFramesWithInterferenceDropped 	0
scalar _01_RfidSim.tag[336].nic.phy 	nbFramesWithoutInterferenceDropped 	0
scalar _01_RfidSim.tag[337].mobility 	x 	1244.4444444444
scalar _01_RfidSim.tag[337].mobility 	y 	755.55555555556
scalar _01_RfidSim.tag[337].nic.phy 	nbFramesWithInterference 	6
scalar _01_RfidSim.tag[337].nic.phy 	nbFramesWithoutInterference 	63
scalar _01_RfidSim.tag[337].nic.phy 	nbFramesWithInterferencePartial 	0
scalar _01_RfidSim.tag[337].nic.phy 	nbFramesWithoutInterferencePartial 	0
scalar _01_RfidSim.tag[337].nic.phy 	nbFramesWithInterferenceDropped 	1
scalar _01_RfidSim.tag[337].nic.phy 	nbFramesWithoutInterferenceDropped 	0
scalar _01_RfidSim.tag[338].mobility 	x 	1333.3333333333
scalar _01_RfidSim.tag[338].mobility 	y 	755.55555555556
scalar _01_RfidSim.tag[338].nic.phy 	nbFramesWithInterference 	5
scalar _01_RfidSim.tag[338].nic.phy 	nbFramesWithoutInterference 	75
scalar _01_RfidSim.tag[338].nic.phy 	nbFramesWithInterferencePartial 	0
scalar _01_RfidSim.tag[338].nic.phy 	nbFramesWithoutInterferencePartial 	0
scalar _01_RfidSim.tag[338].nic.phy 	nbFramesWithInterferenceDropped 	0
scalar _01_RfidSim.tag[338].nic.phy 	nbFramesWithoutInterferenceDropped 	0
scalar _01_RfidSim.tag[339].mobility 	x 	1422.2222222222
scalar _01_RfidSim.tag[339].mobility 	y 	755.55555555556
scalar _01_RfidSim.tag[339].nic.phy 	nbFramesWithInterference 	2
scalar _01_RfidSim.tag[339].nic.phy 	nbFramesWithoutInterference 	78
scalar _01_RfidSim.tag[339].nic.phy 	nbFramesWithInterferencePartial 	0
scalar _01_RfidSim.tag[339].nic.phy 	nbFramesWithoutInterferencePartial 	0
scalar _01_RfidSim.tag[339].nic.phy 	nbFramesWithInterferenceDropped 	0
scalar _01_RfidSim.tag[339].nic.phy 	nbFramesWithoutInterferenceDropped 	0
scalar _01_RfidSim.tag[340].mobility 	x 	1511.1111111111
scalar _01_RfidSim.tag[340].mobility 	y 	755.55555555556
scalar _01_RfidSim.tag[340].nic.phy 	nbFramesWithInterference 	0
scalar _01_RfidSim.tag[340].nic.phy 	nbFramesWithoutInterference 	63
scalar _01_RfidSim.tag[340].nic.phy 	nbFramesWithInterferencePartial 	0
scalar _01_RfidSim.tag[340].nic.phy 	nbFramesWithoutInterferencePartial 	0
scalar _01_RfidSim.tag[340].nic.phy 	nbFramesWithInterferenceDropped 	0
scalar _01_RfidSim.tag[340].nic.phy 	nbFramesWithoutInterferenceDropped 	0
scalar _01_RfidSim.tag[341].mobility 	x 	1599
scalar _01_RfidSim.tag[341].mobility 	y 	755.55555555556
scalar _01_RfidSim.tag[341].nic.phy 	nbFramesWithInterference 	1
scalar _01_RfidSim.tag[341].nic.phy 	nbFramesWithoutInterference 	17
scalar _01_RfidSim.tag[341].nic.phy 	nbFramesWithInterferencePartial 	0
scalar _01_RfidSim.tag[341].nic.phy 	nbFramesWithoutInterferencePartial 	0
scalar _01_RfidSim.tag[341].nic.phy 	nbFramesWithInterferenceDropped 	0
scalar _01_RfidSim.tag[341].nic.phy 	nbFramesWithoutInterferenceDropped 	0
scalar _01_RfidSim.tag[342].mobility 	x 	0
scalar _01_RfidSim.tag[342].mobility 	y 	799
scalar _01_RfidSim.tag[342].nic.phy 	nbFramesWithInterference 	1
scalar _01_RfidSim.tag[342].nic.phy 	nbFramesWithoutInterference 	12
scalar _01_RfidSim.tag[342].nic.phy 	nbFramesWithInterferencePartial 	0
scalar _01_RfidSim.tag[342].nic.phy 	nbFramesWithoutInterferencePartial 	0
scalar _01_RfidSim.tag[342].nic.phy 	nbFramesWithInterferenceDropped 	0
scalar _01_RfidSim.tag[342].nic.phy 	nbFramesWithoutInterferenceDropped 	0
scalar _01_RfidSim.tag[343].mobility 	x 	88.888888888889
scalar _01_RfidSim.tag[343].mobility 	y 	799
scalar _01_RfidSim.tag[343].nic.phy 	nbFramesWithInterference 	2
scalar _01_RfidSim.tag[343].nic.phy 	nbFramesWithoutInterference 	57
scalar _01_RfidSim.tag[343].nic.phy 	nbFramesWithInterferencePartial 	0
scalar _01_RfidSim.tag[343].nic.phy 	nbFramesWithoutInterferencePartial 	0
scalar _01_RfidSim.tag[343].nic.phy 	nbFramesWithInterferenceDropped 	0
scalar _01_RfidSim.tag[343].nic.phy 	nbFramesWithoutInterferenceDropped 	0
scalar _01_RfidSim.tag[344].mobility 	x 	177.77777777778
scalar _01_RfidSim.tag[344].mobility 	y 	799
scalar _01_RfidSim.tag[344].nic.phy 	nbFramesWithInterference 	2
scalar _01_RfidSim.tag[344].nic.phy 	nbFramesWithoutInterference 	70
scalar _01_RfidSim.tag[344].nic.phy 	nbFramesWithInterferencePartial 	0
scalar _01_RfidSim.tag[344].nic.phy 	nbFramesWithoutInterferencePartial 	0
scalar _01_RfidSim.tag[344].nic.phy 	nbFramesWithInterferenceDropped 	0
scalar _01_RfidSim.tag[344].nic.phy 	nbFramesWithoutInterferenceDropped 	0
scalar _01_RfidSim.tag[345].mobility 	x 	266.66666666667
scalar _01_RfidSim.tag[345].mobility 	y 	799
scalar _01_RfidSim.tag[345].nic.phy 	nbFramesWithInterference 	1
scalar _01_RfidSim.tag[345].nic.phy 	nbFramesWithoutInterference 	71
scalar _01_RfidSim.tag[345].nic.phy 	nbFramesWithInterferencePartial 	0
scalar _01_RfidSim.tag[345].nic.phy 	nbFramesWithoutInterferencePartial 	0
scalar _01_RfidSim.tag[345].nic.phy 	nbFramesWithInterferenceDropped 	2
scalar _01_RfidSim.tag[345].nic.phy 	nbFramesWithoutInterferenceDropped 	0
scalar _01_RfidSim.tag[346].mobility 	x 	355.55555555556
scalar _01_RfidSim.tag[346].mobility 	y 	799
scalar _01_RfidSim.tag[346].nic.phy 	nbFramesWithInterference 	1
scalar _01_RfidSim.tag[346].nic.phy 	nbFramesWithoutInterference 	59
scalar _01_RfidSim.tag[346].nic.phy 	nbFramesWithInterferencePartial 	0
scalar _01_RfidSim.tag[346].nic.phy 	nbFramesWithoutInterferencePartial 	0
scalar _01_RfidSim.tag[346].nic.phy 	nbFramesWithInterferenceDropped 	1
scalar _01_RfidSim.tag[346].nic.phy 	nbFramesWithoutInterferenceDropped 	0
scalar _01_RfidSim.tag[347].mobility 	x 	444.44444444444
scalar _01_RfidSim.tag[347].mobility 	y 	799
scalar _01_RfidSim.tag[347].nic.phy 	nbFramesWithInterference 	8
scalar _01_RfidSim.tag[347].nic.phy 	nbFramesWithoutInterference 	16
scalar _01_RfidSim.tag[347].nic.phy 	nbFramesWithInterferencePartial 	0
scalar _01_RfidSim.tag[347].nic.phy 	nbFramesWithoutInterferencePartial 	0
scalar _01_RfidSim.tag[347].nic.phy 	nbFramesWithInterferenceDropped 	0
scalar _01_RfidSim.tag[347].nic.phy 	nbFramesWithoutInterferenceDropped 	0
scalar _01_RfidSim.tag[348].mobility 	x 	533.33333333333
scalar _01_RfidSim.tag[348].mobility 	y 	799
scalar _01_RfidSim.tag[348].nic.phy 	nbFramesWithInterference 	9
scalar _01_RfidSim.tag[348].nic.phy 	nbFramesWithoutInterference 	13
scalar _01_RfidSim.tag[348].nic.phy 	nbFramesWithInterferencePartial 	0
scalar _01_RfidSim.tag[348].nic.phy 	nbFramesWithoutInterferencePartial 	0
scalar _01_RfidSim.tag[348].nic.phy 	nbFramesWithInterferenceDropped 	0
scalar _01_RfidSim.tag[348].nic.phy 	nbFramesWithoutInterferenceDropped 	0
scalar _01_RfidSim.tag[349].mobility 	x 	622.22222222222
scalar _01_RfidSim.tag[349].mobility 	y 	799
scalar _01_RfidSim.tag[349].nic.phy 	nbFramesWithInterference 	17
scalar _01_RfidSim.tag[349].nic.phy 	nbFramesWithoutInterference 	53
scalar _01_RfidSim.tag[349].nic.phy 	nbFramesWithInterferencePartial 	0
scalar _01_RfidSim.tag[349].nic.phy 	nbFramesWithoutInterferencePartial 	0
scalar _01_RfidSim.tag[349].nic.phy 	nbFramesWithInterferenceDropped 	0
scalar _01_RfidSim.tag[349].nic.phy 	nbFramesWithoutInterferenceDropped 	0
scalar _01_RfidSim.tag[350].mobility 	x 	711.11111111111
scalar _01_RfidSim.tag[350].mobility 	y 	799
scalar _01_RfidSim.tag[350].nic.phy 	nbFramesWithInterference 	12
scalar _01_RfidSim.tag[350].nic.phy 	nbFramesWithoutInterference 	67
scalar _01_RfidSim.tag[350].nic.phy 	nbFramesWithInterferencePartial 	0
scalar _01_RfidSim.tag[350].nic.phy 	nbFramesWithoutInterferencePartial 	0
scalar _01_RfidSim.tag[350].nic.phy 	nbFramesWithInterferenceDropped 	2
scalar _01_RfidSim.tag[350].nic.phy 	nbFramesWithoutInterferenceDropped 	0
scalar _01_RfidSim.tag[351].mobility 	x 	800
scalar _01_RfidSim.tag[351].mobility 	y 	799
scalar _01_RfidSim.tag[351].nic.phy 	nbFramesWithInterference 	5
scalar _01_RfidSim.tag[351].nic.phy 	nbFramesWithoutInterference 	86
scalar _01_RfidSim.tag[351].nic.phy 	nbFramesWithInterferencePartial 	0
scalar _01_RfidSim.tag[351].nic.phy 	nbFramesWithoutInterferencePartial 	0
scalar _01_RfidSim.tag[351].nic.phy 	nbFramesWithInterferenceDropped 	2
scalar _01_RfidSim.tag[351].nic.phy 	nbFramesWithoutInterferenceDropped 	0
scalar _01_RfidSim.tag[352].mobility 	x 	888.88888888889
scalar _01_RfidSim.tag[352].mobility 	y 	799
scalar _01_RfidSim.tag[352].nic.phy 	nbFramesWithInterference 	5
scalar _01_RfidSim.tag[352].nic.phy 	nbFramesWithoutInterference 	72
scalar _01_RfidSim.tag[352].nic.phy 	nbFramesWithInterferencePartial 	0
scalar _01_RfidSim.tag[352].nic.phy 	nbFramesWithoutInterferencePartial 	0
scalar _01_RfidSim.tag[352].nic.phy 	nbFramesWithInterferenceDropped 	4
scalar _01_RfidSim.tag[352].nic.phy 	nbFramesWithoutInterferenceDropped 	0
scalar _01_RfidSim.tag[353].mobility 	x 	977.77777777778
scalar _01_RfidSim.tag[353].mobility 	y 	799
scalar _01_RfidSim.tag[353].nic.phy 	nbFramesWithInterference 	15
scalar _01_RfidSim.tag[353].nic.phy 	nbFramesWithoutInterference 	52
scalar _01_RfidSim.tag[353].nic.phy 	nbFramesWithInterferencePartial 	0
scalar _01_RfidSim.tag[353].nic.phy 	nbFramesWithoutInterferencePartial 	0
scalar _01_RfidSim.tag[353].nic.phy 	nbFramesWithInterferenceDropped 	2
scalar _01_RfidSim.tag[353].nic.phy 	nbFramesWithoutInterferenceDropped 	0
scalar _01_RfidSim.tag[354].mobility 	x 	1066.6666666667
scalar _01_RfidSim.tag[354].mobility 	y 	799
scalar _01_RfidSim.tag[354].nic.phy 	nbFramesWithInterference 	7
scalar _01_RfidSim.tag[354].nic.phy 	nbFramesWithoutInterference 	17
scalar _01_RfidSim.tag[354].nic.phy 	nbFramesWithInterferencePartial 	0
scalar _01_RfidSim.tag[354].nic.phy 	nbFramesWithoutInterferencePartial 	0
scalar _01_RfidSim.tag[354].nic.phy 	nbFramesWithInterferenceDropped 	1
scalar _01_RfidSim.tag[354].nic.phy 	nbFramesWithoutInterferenceDropped 	0
scalar _01_RfidSim.tag[355].mobility 	x 	1155.5555555556
scalar _01_RfidSim.tag[355].mobility 	y 	799
scalar _01_RfidSim.tag[355].nic.phy 	nbFramesWithInterference 	9
scalar _01_RfidSim.tag[355].nic.phy 	nbFramesWithoutInterference 	17
scalar _01_RfidSim.tag[355].nic.phy 	nbFramesWithInterferencePartial 	0
scalar _01_RfidSim.tag[355].nic.phy 	nbFramesWithoutInterferencePartial 	0
scalar _01_RfidSim.tag[355].nic.phy 	nbFramesWithInterferenceDropped 	1
scalar _01_RfidSim.tag[355].nic.phy 	nbFramesWithoutInterferenceDropped 	0
scalar _01_RfidSim.tag[356].mobility 	x 	1244.4444444444
scalar _01_RfidSim.tag[356].mobility 	y 	799
scalar _01_RfidSim.tag[356].nic.phy 	nbFramesWithInterference 	4
scalar _01_RfidSim.tag[356].nic.phy 	nbFramesWithoutInterference 	59
scalar _01_RfidSim.tag[356].nic.phy 	nbFramesWithInterferencePartial 	0
scalar _01_RfidSim.tag[356].nic.phy 	nbFramesWithoutInterferencePartial 	0
scalar _01_RfidSim.tag[356].nic.phy 	nbFramesWithInterferenceDropped 	0
scalar _01_RfidSim.tag[356].nic.phy 	nbFramesWithoutInterferenceDropped 	0
scalar _01_RfidSim.tag[357].mobility 	x 	1333.3333333333
scalar _01_RfidSim.tag[357].mobility 	y 	799
scalar _01_RfidSim.tag[357].nic.phy 	nbFramesWithInterference 	2
scalar _01_RfidSim.tag[357].nic.phy 	nbFramesWithoutInterference 	75
scalar _01_RfidSim.tag[357].nic.phy 	nbFramesWithInterferencePartial 	0
scalar _01_RfidSim.tag[357].nic.phy 	nbFramesWithoutInterferencePartial 	0
scalar _01_RfidSim.tag[357].nic.phy 	nbFramesWithInterferenceDropped 	1
scalar _01_RfidSim.tag[357].nic.phy 	nbFramesWithoutInterferenceDropped 	0
scalar _01_RfidSim.tag[358].mobility 	x 	1422.2222222222
scalar _01_RfidSim.tag[358].mobility 	y 	799
scalar _01_RfidSim.tag[358].nic.phy 	nbFramesWithInterference 	0
scalar _01_RfidSim.tag[358].nic.phy 	nbFramesWithoutInterference 	73
scalar _01_RfidSim.tag[358].nic.phy 	nbFramesWithInterferencePartial 	0
scalar _01_RfidSim.tag[358].nic.phy 	nbFramesWithoutInterferencePartial 	0
scalar _01_RfidSim.tag[358].nic.phy 	nbFramesWithInterferenceDropped 	1
scalar _01_RfidSim.tag[358].nic.phy 	nbFramesWithoutInterferenceDropped 	0
scalar _01_RfidSim.tag[359].mobility 	x 	1511.1111111111
scalar _01_RfidSim.tag[359].mobility 	y 	799
scalar _01_RfidSim.tag[359].nic.phy 	nbFramesWithInterference 	0
scalar _01_RfidSim.tag[359].nic.phy 	nbFramesWithoutInterference 	59
scalar _01_RfidSim.tag[359].nic.phy 	nbFramesWithInterferencePartial 	0
scalar _01_RfidSim.tag[359].nic.phy 	nbFramesWithoutInterferencePartial 	0
scalar _01_RfidSim.tag[359].nic.phy 	nbFramesWithInterferenceDropped 	0
scalar _01_RfidSim.tag[359].nic.phy 	nbFramesWithoutInterferenceDropped 	0
scalar _01_RfidSim.tag[360].mobility 	x 	1599
scalar _01_RfidSim.tag[360].mobility 	y 	799
scalar _01_RfidSim.tag[360].nic.phy 	nbFramesWithInterference 	0
scalar _01_RfidSim.tag[360].nic.phy 	nbFramesWithoutInterference 	15
scalar _01_RfidSim.tag[360].nic.phy 	nbFramesWithInterferencePartial 	0
scalar _01_RfidSim.tag[360].nic.phy 	nbFramesWithoutInterferencePartial 	0
scalar _01_RfidSim.tag[360].nic.phy 	nbFramesWithInterferenceDropped 	1
scalar _01_RfidSim.tag[360].nic.phy 	nbFramesWithoutInterferenceDropped 	0
